 energy: -193.832765613988 gnorm: 0.000840652232 xtb: 6.7.1 (edcfbbe)
          07072518043D

138150  0     0  0            999 V2000
   -0.7296   -5.1072   -2.9180 C   0  0  0  0  0  0  0  0  0  0  0  0
   -0.7525   -4.2317   -1.6987 C   0  0  0  0  0  3  0  0  0  0  0  0
   -0.7793   -4.8079   -0.4314 C   0  0  0  0  0  3  0  0  0  0  0  0
   -0.7841   -4.0192    0.7043 C   0  0  0  0  0  3  0  0  0  0  0  0
   -0.7752   -2.6293    0.5935 C   0  0  0  0  0  3  0  0  0  0  0  0
   -0.7753   -1.6014    2.1206 P   0  0  0  0  0  4  0  0  0  0  0  0
   -2.3685   -2.1659    2.8590 C   0  0  0  0  0  3  0  0  0  0  0  0
   -3.3269   -2.8786    2.1432 C   0  0  0  0  0  3  0  0  0  0  0  0
   -4.5647   -3.1506    2.7016 C   0  0  0  0  0  3  0  0  0  0  0  0
   -4.8922   -2.7113    3.9795 C   0  0  0  0  0  3  0  0  0  0  0  0
   -6.2492   -2.9836    4.5618 C   0  0  0  0  0  0  0  0  0  0  0  0
   -3.9460   -1.9742    4.6840 C   0  0  0  0  0  3  0  0  0  0  0  0
   -2.7093   -1.6941    4.1287 C   0  0  0  0  0  3  0  0  0  0  0  0
    0.5386   -2.5190    3.0363 C   0  0  0  0  0  3  0  0  0  0  0  0
    1.7978   -2.6489    2.4700 C   0  0  0  0  0  3  0  0  0  0  0  0
    2.0467   -2.3742    1.0281 C   0  0  0  0  0  3  0  0  0  0  0  0
    2.1192   -1.0901    0.5127 C   0  0  0  0  0  3  0  0  0  0  0  0
    1.7842    0.3170    1.6568 P   0  0  0  0  0  4  0  0  0  0  0  0
    2.4075    1.8075    0.7669 C   0  0  0  0  0  3  0  0  0  0  0  0
    3.3704    2.6541    1.3089 C   0  0  0  0  0  3  0  0  0  0  0  0
    3.6758    3.8599    0.6967 C   0  0  0  0  0  3  0  0  0  0  0  0
    3.0258    4.2593   -0.4642 C   0  0  0  0  0  3  0  0  0  0  0  0
    3.3450    5.5678   -1.1280 C   0  0  0  0  0  0  0  0  0  0  0  0
    2.0427    3.4251   -0.9911 C   0  0  0  0  0  3  0  0  0  0  0  0
    1.7252    2.2275   -0.3771 C   0  0  0  0  0  3  0  0  0  0  0  0
    3.2337    0.0028    2.7485 C   0  0  0  0  0  3  0  0  0  0  0  0
    4.4960   -0.1448    2.1768 C   0  0  0  0  0  3  0  0  0  0  0  0
    5.5980   -0.3986    2.9741 C   0  0  0  0  0  3  0  0  0  0  0  0
    5.4628   -0.5273    4.3528 C   0  0  0  0  0  3  0  0  0  0  0  0
    6.6480   -0.8415    5.2190 C   0  0  0  0  0  0  0  0  0  0  0  0
    4.1981   -0.3881    4.9145 C   0  0  0  0  0  3  0  0  0  0  0  0
    3.0931   -0.1225    4.1246 C   0  0  0  0  0  3  0  0  0  0  0  0
    2.4184   -0.8930   -0.8504 C   0  0  0  0  0  3  0  0  0  0  0  0
    2.6249   -1.9528   -1.6861 C   0  0  0  0  0  3  0  0  0  0  0  0
    2.5532   -3.2769   -1.2030 C   0  0  0  0  0  3  0  0  0  0  0  0
    2.7720   -4.3852   -2.0519 C   0  0  0  0  0  3  0  0  0  0  0  0
    2.7238   -5.6623   -1.5648 C   0  0  0  0  0  3  0  0  0  0  0  0
    2.4431   -5.8827   -0.2061 C   0  0  0  0  0  3  0  0  0  0  0  0
    2.2178   -4.8304    0.6380 C   0  0  0  0  0  3  0  0  0  0  0  0
    2.2750   -3.4947    0.1719 C   0  0  0  0  0  3  0  0  0  0  0  0
    2.8706   -3.1813    3.2487 C   0  0  0  0  0  3  0  0  0  0  0  0
    4.1828   -3.3137    2.7338 C   0  0  0  0  0  3  0  0  0  0  0  0
    5.1948   -3.8144    3.5056 C   0  0  0  0  0  3  0  0  0  0  0  0
    4.9555   -4.2056    4.8333 C   0  0  0  0  0  3  0  0  0  0  0  0
    3.6989   -4.0935    5.3617 C   0  0  0  0  0  3  0  0  0  0  0  0
    2.6307   -3.5873    4.5876 C   0  0  0  0  0  3  0  0  0  0  0  0
    1.3187   -3.5045    5.1019 C   0  0  0  0  0  3  0  0  0  0  0  0
    0.3095   -2.9750    4.3504 C   0  0  0  0  0  3  0  0  0  0  0  0
   -0.7747   -2.0496   -0.6683 C   0  0  0  0  0  3  0  0  0  0  0  0
   -0.7549   -2.8457   -1.8017 C   0  0  0  0  0  3  0  0  0  0  0  0
   -0.4221    0.6756    2.2320 Ru  0  0  0  0  0  0  0  0  0  0  0  0
   -0.5882   -4.5149   -3.8214 H   0  0  0  0  0  0  0  0  0  0  0  0
   -1.6665   -5.6582   -3.0071 H   0  0  0  0  0  0  0  0  0  0  0  0
    0.0816   -5.8343   -2.8433 H   0  0  0  0  0  0  0  0  0  0  0  0
   -0.7857   -5.8871   -0.3375 H   0  0  0  0  0  0  0  0  0  0  0  0
   -0.7938   -4.4772    1.6865 H   0  0  0  0  0  0  0  0  0  0  0  0
   -3.1126   -3.2225    1.1398 H   0  0  0  0  0  0  0  0  0  0  0  0
   -5.2939   -3.7103    2.1279 H   0  0  0  0  0  0  0  0  0  0  0  0
   -6.9406   -2.1876    4.2776 H   0  0  0  0  0  0  0  0  0  0  0  0
   -6.2054   -3.0198    5.6502 H   0  0  0  0  0  0  0  0  0  0  0  0
   -6.6497   -3.9263    4.1892 H   0  0  0  0  0  0  0  0  0  0  0  0
   -4.1812   -1.5978    5.6722 H   0  0  0  0  0  0  0  0  0  0  0  0
   -2.0120   -1.0802    4.6846 H   0  0  0  0  0  0  0  0  0  0  0  0
    3.8915    2.3731    2.2153 H   0  0  0  0  0  0  0  0  0  0  0  0
    4.4317    4.5010    1.1345 H   0  0  0  0  0  0  0  0  0  0  0  0
    2.4820    6.2344   -1.0826 H   0  0  0  0  0  0  0  0  0  0  0  0
    3.5897    5.4119   -2.1797 H   0  0  0  0  0  0  0  0  0  0  0  0
    4.1876    6.0576   -0.6410 H   0  0  0  0  0  0  0  0  0  0  0  0
    1.5145    3.7289   -1.8869 H   0  0  0  0  0  0  0  0  0  0  0  0
    0.9206    1.6115   -0.7578 H   0  0  0  0  0  0  0  0  0  0  0  0
    4.6090   -0.0555    1.1027 H   0  0  0  0  0  0  0  0  0  0  0  0
    6.5754   -0.5069    2.5193 H   0  0  0  0  0  0  0  0  0  0  0  0
    6.6080   -1.8887    5.5270 H   0  0  0  0  0  0  0  0  0  0  0  0
    6.6451   -0.2265    6.1197 H   0  0  0  0  0  0  0  0  0  0  0  0
    7.5811   -0.6763    4.6806 H   0  0  0  0  0  0  0  0  0  0  0  0
    4.0799   -0.4980    5.9856 H   0  0  0  0  0  0  0  0  0  0  0  0
    2.1092   -0.0277    4.5650 H   0  0  0  0  0  0  0  0  0  0  0  0
    2.5040    0.1154   -1.2313 H   0  0  0  0  0  0  0  0  0  0  0  0
    2.8582   -1.7905   -2.7314 H   0  0  0  0  0  0  0  0  0  0  0  0
    2.9808   -4.2000   -3.0986 H   0  0  0  0  0  0  0  0  0  0  0  0
    2.8997   -6.5076   -2.2184 H   0  0  0  0  0  0  0  0  0  0  0  0
    2.4013   -6.8974    0.1697 H   0  0  0  0  0  0  0  0  0  0  0  0
    1.9927   -5.0154    1.6799 H   0  0  0  0  0  0  0  0  0  0  0  0
    4.3791   -3.0080    1.7147 H   0  0  0  0  0  0  0  0  0  0  0  0
    6.1928   -3.9082    3.0959 H   0  0  0  0  0  0  0  0  0  0  0  0
    5.7685   -4.5997    5.4302 H   0  0  0  0  0  0  0  0  0  0  0  0
    3.5001   -4.3933    6.3836 H   0  0  0  0  0  0  0  0  0  0  0  0
    1.1232   -3.8802    6.0989 H   0  0  0  0  0  0  0  0  0  0  0  0
   -0.6963   -2.9356    4.7462 H   0  0  0  0  0  0  0  0  0  0  0  0
   -0.7759   -0.9694   -0.7379 H   0  0  0  0  0  0  0  0  0  0  0  0
   -0.7389   -2.3841   -2.7817 H   0  0  0  0  0  0  0  0  0  0  0  0
   -0.8287    0.8554    0.7083 H   0  0  0  0  0  0  0  0  0  0  0  0
   -0.0931    0.6940    3.9506 H   0  0  0  0  0  0  0  0  0  0  0  0
   -3.1022    5.1477   -0.9599 C   0  0  0  0  0  0  0  0  0  0  0  0
   -3.6930    4.9629    0.4448 C   0  0  0  0  0  0  0  0  0  0  0  0
   -4.8781    5.9028    0.6757 C   0  0  0  0  0  0  0  0  0  0  0  0
   -4.1197    3.6284    0.6507 O   0  0  0  0  0  0  0  0  0  0  0  0
   -3.0246    2.9030    1.1805 C   0  0  0  0  0  0  0  0  0  0  0  0
   -3.5437    1.7969    2.0975 C   0  0  0  0  0  0  0  0  0  0  0  0
   -2.4648    1.1470    2.8490 N   0  0  0  0  0  4  0  0  0  0  0  0
   -2.1781    3.9823    1.8965 C   0  0  0  0  0  0  0  0  0  0  0  0
   -0.6786    3.8747    1.6112 C   0  0  0  0  0  0  0  0  0  0  0  0
   -0.0736    2.8003    2.4049 N   0  0  0  0  0  4  0  0  0  0  0  0
   -2.6992    5.2139    1.4323 O   0  0  0  0  0  0  0  0  0  0  0  0
   -3.8735    4.9639   -1.7044 H   0  0  0  0  0  0  0  0  0  0  0  0
   -2.2834    4.4486   -1.1167 H   0  0  0  0  0  0  0  0  0  0  0  0
   -2.7263    6.1635   -1.0617 H   0  0  0  0  0  0  0  0  0  0  0  0
   -5.6623    5.6786   -0.0439 H   0  0  0  0  0  0  0  0  0  0  0  0
   -4.5506    6.9337    0.5627 H   0  0  0  0  0  0  0  0  0  0  0  0
   -5.2625    5.7552    1.6828 H   0  0  0  0  0  0  0  0  0  0  0  0
   -2.4340    2.4442    0.3735 H   0  0  0  0  0  0  0  0  0  0  0  0
   -4.2936    2.2295    2.7717 H   0  0  0  0  0  0  0  0  0  0  0  0
   -4.0389    1.0566    1.4636 H   0  0  0  0  0  0  0  0  0  0  0  0
   -2.3506    1.6035    3.7629 H   0  0  0  0  0  0  0  0  0  0  0  0
   -2.7970    0.2183    3.0989 H   0  0  0  0  0  0  0  0  0  0  0  0
   -2.3412    3.9487    2.9873 H   0  0  0  0  0  0  0  0  0  0  0  0
   -0.5050    3.6733    0.5513 H   0  0  0  0  0  0  0  0  0  0  0  0
   -0.2261    4.8447    1.8555 H   0  0  0  0  0  0  0  0  0  0  0  0
   -0.2725    2.9994    3.3819 H   0  0  0  0  0  0  0  0  0  0  0  0
    0.9355    2.8739    2.2938 H   0  0  0  0  0  0  0  0  0  0  0  0
   -1.7725    1.1346    5.5307 O   0  0  0  0  0  0  0  0  0  0  0  0
   -0.5206    1.1552    5.5556 C   0  0  0  0  0  0  0  0  0  0  0  0
    0.2100    2.4871    5.6592 C   0  0  0  0  0  0  0  0  0  0  0  0
    0.6199    2.6766    7.1185 C   0  0  0  0  0  0  0  0  0  0  0  0
    1.6541    1.6201    7.4885 C   0  0  0  0  0  0  0  0  0  0  0  0
    1.1693    0.2450    7.1114 C   0  0  0  0  0  0  0  0  0  0  0  0
    1.8048   -0.8920    7.8433 C   0  0  0  0  0  0  0  0  0  0  0  0
    0.2014    0.0597    6.2106 C   0  0  0  0  0  0  0  0  0  0  0  0
    1.0996    2.4945    5.0531 H   0  0  0  0  0  0  0  0  0  0  0  0
   -0.4510    3.2870    5.3712 H   0  0  0  0  0  0  0  0  0  0  0  0
    1.0253    3.6644    7.2602 H   0  0  0  0  0  0  0  0  0  0  0  0
   -0.2477    2.5699    7.7471 H   0  0  0  0  0  0  0  0  0  0  0  0
    1.8592    1.6510    8.5451 H   0  0  0  0  0  0  0  0  0  0  0  0
    2.5758    1.8176    6.9674 H   0  0  0  0  0  0  0  0  0  0  0  0
    2.8593   -0.7191    7.9654 H   0  0  0  0  0  0  0  0  0  0  0  0
    1.3737   -0.9807    8.8249 H   0  0  0  0  0  0  0  0  0  0  0  0
    1.6583   -1.8172    7.3157 H   0  0  0  0  0  0  0  0  0  0  0  0
   -0.1473   -0.9334    6.0073 H   0  0  0  0  0  0  0  0  0  0  0  0
  1  2  1  0  0  0  0
  1 52  1  0  0  0  0
  1 53  1  0  0  0  0
  1 54  1  0  0  0  0
  2  3  1  0  0  0  0
  2 50  1  0  0  0  0
  3  4  1  0  0  0  0
  3 55  1  0  0  0  0
  4  5  1  0  0  0  0
  4 56  1  0  0  0  0
  5  6  1  0  0  0  0
  5 49  1  0  0  0  0
  6  7  1  0  0  0  0
  6 14  1  0  0  0  0
  6 51  1  0  0  0  0
  7  8  1  0  0  0  0
  7 13  1  0  0  0  0
  8  9  1  0  0  0  0
  8 57  1  0  0  0  0
  9 10  1  0  0  0  0
  9 58  1  0  0  0  0
 10 11  1  0  0  0  0
 10 12  1  0  0  0  0
 11 59  1  0  0  0  0
 11 60  1  0  0  0  0
 11 61  1  0  0  0  0
 12 13  1  0  0  0  0
 12 62  1  0  0  0  0
 13 63  1  0  0  0  0
 14 15  1  0  0  0  0
 14 48  1  0  0  0  0
 15 16  1  0  0  0  0
 15 41  1  0  0  0  0
 16 17  1  0  0  0  0
 16 40  1  0  0  0  0
 17 18  1  0  0  0  0
 17 33  1  0  0  0  0
 18 19  1  0  0  0  0
 18 26  1  0  0  0  0
 19 20  1  0  0  0  0
 19 25  1  0  0  0  0
 20 21  1  0  0  0  0
 20 64  1  0  0  0  0
 21 22  1  0  0  0  0
 21 65  1  0  0  0  0
 22 23  1  0  0  0  0
 22 24  1  0  0  0  0
 23 66  1  0  0  0  0
 23 67  1  0  0  0  0
 23 68  1  0  0  0  0
 24 25  1  0  0  0  0
 24 69  1  0  0  0  0
 25 70  1  0  0  0  0
 26 27  1  0  0  0  0
 26 32  1  0  0  0  0
 27 28  1  0  0  0  0
 27 71  1  0  0  0  0
 28 29  1  0  0  0  0
 28 72  1  0  0  0  0
 29 30  1  0  0  0  0
 29 31  1  0  0  0  0
 30 73  1  0  0  0  0
 30 74  1  0  0  0  0
 30 75  1  0  0  0  0
 31 32  1  0  0  0  0
 31 76  1  0  0  0  0
 32 77  1  0  0  0  0
 33 34  1  0  0  0  0
 33 78  1  0  0  0  0
 34 35  1  0  0  0  0
 34 79  1  0  0  0  0
 35 36  1  0  0  0  0
 35 40  1  0  0  0  0
 36 37  1  0  0  0  0
 36 80  1  0  0  0  0
 37 38  1  0  0  0  0
 37 81  1  0  0  0  0
 38 39  1  0  0  0  0
 38 82  1  0  0  0  0
 39 40  1  0  0  0  0
 39 83  1  0  0  0  0
 41 42  1  0  0  0  0
 41 46  1  0  0  0  0
 42 43  1  0  0  0  0
 42 84  1  0  0  0  0
 43 44  1  0  0  0  0
 43 85  1  0  0  0  0
 44 45  1  0  0  0  0
 44 86  1  0  0  0  0
 45 46  1  0  0  0  0
 45 87  1  0  0  0  0
 46 47  1  0  0  0  0
 47 48  1  0  0  0  0
 47 88  1  0  0  0  0
 48 89  1  0  0  0  0
 49 50  1  0  0  0  0
 49 90  1  0  0  0  0
 50 91  1  0  0  0  0
 51 18  1  0  0  0  0
 51100  1  0  0  0  0
 92 51  1  0  0  0  0
 93 51  1  0  0  0  0
 94 95  1  0  0  0  0
 94105  1  0  0  0  0
 94106  1  0  0  0  0
 94107  1  0  0  0  0
 95 96  1  0  0  0  0
 95 97  1  0  0  0  0
 95104  1  0  0  0  0
 96108  1  0  0  0  0
 96109  1  0  0  0  0
 96110  1  0  0  0  0
 97 98  1  0  0  0  0
 98 99  1  0  0  0  0
 98101  1  0  0  0  0
 98111  1  0  0  0  0
 99100  1  0  0  0  0
 99112  1  0  0  0  0
 99113  1  0  0  0  0
100114  1  0  0  0  0
100115  1  0  0  0  0
101102  1  0  0  0  0
101104  1  0  0  0  0
101116  1  0  0  0  0
102103  1  0  0  0  0
102117  1  0  0  0  0
102118  1  0  0  0  0
103119  1  0  0  0  0
103120  1  0  0  0  0
103 51  1  0  0  0  0
121122  2  0  0  0  0
121114  1  0  0  0  0
122123  1  0  0  0  0
122128  1  0  0  0  0
122 93  1  0  0  0  0
123124  1  0  0  0  0
123129  1  0  0  0  0
123130  1  0  0  0  0
124125  1  0  0  0  0
124131  1  0  0  0  0
124132  1  0  0  0  0
125126  1  0  0  0  0
125133  1  0  0  0  0
125134  1  0  0  0  0
126127  1  0  0  0  0
126128  2  0  0  0  0
127135  1  0  0  0  0
127136  1  0  0  0  0
127137  1  0  0  0  0
128138  1  0  0  0  0
M  END
