 energy: -226.052013665964 gnorm: 0.000719472298 xtb: 6.7.1 (edcfbbe)
          07072517363D

152165  0     0  0            999 V2000
    5.5787    2.2525    7.4583 C   0  0  0  0  0  0  0  0  0  0  0  0
    4.6812    1.6953    6.3916 C   0  0  0  0  0  3  0  0  0  0  0  0
    5.1369    0.6983    5.5335 C   0  0  0  0  0  3  0  0  0  0  0  0
    4.3286    0.1976    4.5291 C   0  0  0  0  0  3  0  0  0  0  0  0
    3.0203    0.6561    4.3908 C   0  0  0  0  0  3  0  0  0  0  0  0
    1.9106    0.1676    3.0052 P   0  0  0  0  0  4  0  0  0  0  0  0
    2.4753    1.4638    1.8154 C   0  0  0  0  0  3  0  0  0  0  0  0
    3.2448    2.5633    2.1866 C   0  0  0  0  0  3  0  0  0  0  0  0
    3.5391    3.5659    1.2765 C   0  0  0  0  0  3  0  0  0  0  0  0
    3.0823    3.5086   -0.0347 C   0  0  0  0  0  3  0  0  0  0  0  0
    3.3974    4.6139   -1.0011 C   0  0  0  0  0  0  0  0  0  0  0  0
    2.3226    2.4062   -0.4135 C   0  0  0  0  0  3  0  0  0  0  0  0
    2.0211    1.4074    0.4956 C   0  0  0  0  0  3  0  0  0  0  0  0
    2.7792   -1.3394    2.3940 C   0  0  0  0  0  3  0  0  0  0  0  0
    2.7352   -2.5048    3.1411 C   0  0  0  0  0  3  0  0  0  0  0  0
    2.1116   -2.5676    4.4898 C   0  0  0  0  0  3  0  0  0  0  0  0
    0.7355   -2.6032    4.6588 C   0  0  0  0  0  3  0  0  0  0  0  0
   -0.3856   -2.1838    3.2393 P   0  0  0  0  0  4  0  0  0  0  0  0
   -1.9536   -3.0677    3.6489 C   0  0  0  0  0  3  0  0  0  0  0  0
   -2.4877   -4.1040    2.8883 C   0  0  0  0  0  3  0  0  0  0  0  0
   -3.7017   -4.6765    3.2328 C   0  0  0  0  0  3  0  0  0  0  0  0
   -4.4228   -4.2350    4.3359 C   0  0  0  0  0  3  0  0  0  0  0  0
   -5.7205   -4.8860    4.7201 C   0  0  0  0  0  0  0  0  0  0  0  0
   -3.9139   -3.1667    5.0673 C   0  0  0  0  0  3  0  0  0  0  0  0
   -2.7107   -2.5819    4.7157 C   0  0  0  0  0  3  0  0  0  0  0  0
    0.2667   -3.3810    1.9983 C   0  0  0  0  0  3  0  0  0  0  0  0
    0.4724   -4.7132    2.3557 C   0  0  0  0  0  3  0  0  0  0  0  0
    0.9210   -5.6247    1.4176 C   0  0  0  0  0  3  0  0  0  0  0  0
    1.1869   -5.2303    0.1091 C   0  0  0  0  0  3  0  0  0  0  0  0
    1.6940   -6.2309   -0.8887 C   0  0  0  0  0  0  0  0  0  0  0  0
    0.9766   -3.9025   -0.2423 C   0  0  0  0  0  3  0  0  0  0  0  0
    0.5121   -2.9885    0.6890 C   0  0  0  0  0  3  0  0  0  0  0  0
    0.2037   -2.8186    5.9471 C   0  0  0  0  0  3  0  0  0  0  0  0
    1.0096   -2.9429    7.0419 C   0  0  0  0  0  3  0  0  0  0  0  0
    2.4130   -2.8836    6.9126 C   0  0  0  0  0  3  0  0  0  0  0  0
    3.2629   -3.0240    8.0330 C   0  0  0  0  0  3  0  0  0  0  0  0
    4.6222   -3.0245    7.8842 C   0  0  0  0  0  3  0  0  0  0  0  0
    5.1841   -2.8954    6.6033 C   0  0  0  0  0  3  0  0  0  0  0  0
    4.3854   -2.7541    5.5021 C   0  0  0  0  0  3  0  0  0  0  0  0
    2.9741   -2.7282    5.6185 C   0  0  0  0  0  3  0  0  0  0  0  0
    3.3621   -3.6916    2.6521 C   0  0  0  0  0  3  0  0  0  0  0  0
    3.3465   -4.9105    3.3719 C   0  0  0  0  0  3  0  0  0  0  0  0
    3.9484   -6.0328    2.8728 C   0  0  0  0  0  3  0  0  0  0  0  0
    4.5910   -6.0053    1.6241 C   0  0  0  0  0  3  0  0  0  0  0  0
    4.6172   -4.8470    0.8971 C   0  0  0  0  0  3  0  0  0  0  0  0
    4.0094   -3.6700    1.3889 C   0  0  0  0  0  3  0  0  0  0  0  0
    4.0455   -2.4601    0.6630 C   0  0  0  0  0  3  0  0  0  0  0  0
    3.4532   -1.3332    1.1557 C   0  0  0  0  0  3  0  0  0  0  0  0
    2.5670    1.6618    5.2350 C   0  0  0  0  0  3  0  0  0  0  0  0
    3.3922    2.1847    6.2163 C   0  0  0  0  0  3  0  0  0  0  0  0
   -0.3959    0.1228    2.9829 Ru  0  0  0  0  0  0  0  0  0  0  0  0
    4.9949    2.7428    8.2368 H   0  0  0  0  0  0  0  0  0  0  0  0
    6.2647    2.9833    7.0285 H   0  0  0  0  0  0  0  0  0  0  0  0
    6.1737    1.4577    7.9125 H   0  0  0  0  0  0  0  0  0  0  0  0
    6.1464    0.3210    5.6449 H   0  0  0  0  0  0  0  0  0  0  0  0
    4.7170   -0.5362    3.8332 H   0  0  0  0  0  0  0  0  0  0  0  0
    3.6252    2.6530    3.1957 H   0  0  0  0  0  0  0  0  0  0  0  0
    4.1359    4.4119    1.5957 H   0  0  0  0  0  0  0  0  0  0  0  0
    2.9345    5.5460   -0.6706 H   0  0  0  0  0  0  0  0  0  0  0  0
    3.0283    4.3772   -1.9992 H   0  0  0  0  0  0  0  0  0  0  0  0
    4.4735    4.7774   -1.0546 H   0  0  0  0  0  0  0  0  0  0  0  0
    1.9591    2.3301   -1.4315 H   0  0  0  0  0  0  0  0  0  0  0  0
    1.4062    0.5709    0.1893 H   0  0  0  0  0  0  0  0  0  0  0  0
   -1.9614   -4.4717    2.0172 H   0  0  0  0  0  0  0  0  0  0  0  0
   -4.0963   -5.4851    2.6290 H   0  0  0  0  0  0  0  0  0  0  0  0
   -6.3613   -5.0134    3.8454 H   0  0  0  0  0  0  0  0  0  0  0  0
   -6.2473   -4.2880    5.4639 H   0  0  0  0  0  0  0  0  0  0  0  0
   -5.5316   -5.8733    5.1417 H   0  0  0  0  0  0  0  0  0  0  0  0
   -4.4739   -2.7809    5.9100 H   0  0  0  0  0  0  0  0  0  0  0  0
   -2.3586   -1.7101    5.2517 H   0  0  0  0  0  0  0  0  0  0  0  0
    0.2733   -5.0306    3.3727 H   0  0  0  0  0  0  0  0  0  0  0  0
    1.0748   -6.6583    1.7027 H   0  0  0  0  0  0  0  0  0  0  0  0
    1.7509   -5.7944   -1.8854 H   0  0  0  0  0  0  0  0  0  0  0  0
    1.0402   -7.1028   -0.9232 H   0  0  0  0  0  0  0  0  0  0  0  0
    2.6906   -6.5711   -0.5995 H   0  0  0  0  0  0  0  0  0  0  0  0
    1.1758   -3.5804   -1.2574 H   0  0  0  0  0  0  0  0  0  0  0  0
    0.3418   -1.9539    0.4207 H   0  0  0  0  0  0  0  0  0  0  0  0
   -0.8660   -2.9192    6.0614 H   0  0  0  0  0  0  0  0  0  0  0  0
    0.5835   -3.1052    8.0247 H   0  0  0  0  0  0  0  0  0  0  0  0
    2.8113   -3.1338    9.0115 H   0  0  0  0  0  0  0  0  0  0  0  0
    5.2704   -3.1384    8.7440 H   0  0  0  0  0  0  0  0  0  0  0  0
    6.2610   -2.9158    6.4914 H   0  0  0  0  0  0  0  0  0  0  0  0
    4.8362   -2.6814    4.5214 H   0  0  0  0  0  0  0  0  0  0  0  0
    2.8483   -4.9508    4.3314 H   0  0  0  0  0  0  0  0  0  0  0  0
    3.9286   -6.9554    3.4393 H   0  0  0  0  0  0  0  0  0  0  0  0
    5.0615   -6.9041    1.2453 H   0  0  0  0  0  0  0  0  0  0  0  0
    5.1053   -4.8097   -0.0691 H   0  0  0  0  0  0  0  0  0  0  0  0
    4.5606   -2.4374   -0.2897 H   0  0  0  0  0  0  0  0  0  0  0  0
    3.5158   -0.4121    0.5932 H   0  0  0  0  0  0  0  0  0  0  0  0
    1.5607    2.0417    5.1099 H   0  0  0  0  0  0  0  0  0  0  0  0
    3.0306    2.9833    6.8526 H   0  0  0  0  0  0  0  0  0  0  0  0
   -0.8203    0.3350    4.6671 H   0  0  0  0  0  0  0  0  0  0  0  0
   -0.1922   -0.0209    1.4140 H   0  0  0  0  0  0  0  0  0  0  0  0
   -2.6061    0.5565    2.4036 N   0  0  0  0  0  4  0  0  0  0  0  0
   -3.6997   -0.0097    3.2180 C   0  0  0  0  0  0  0  0  0  0  0  0
   -2.6996    2.0355    2.5068 C   0  0  0  0  0  0  0  0  0  0  0  0
   -1.4315    2.7227    2.0172 C   0  0  0  0  0  0  0  0  0  0  0  0
   -0.3397    2.2338    2.8684 N   0  0  0  0  0  4  0  0  0  0  0  0
   -1.5817    4.2270    2.0671 C   0  0  0  0  0  3  0  0  0  0  0  0
   -1.6974    4.8914    3.2832 C   0  0  0  0  0  3  0  0  0  0  0  0
   -1.8414    6.2699    3.3130 C   0  0  0  0  0  3  0  0  0  0  0  0
   -1.8721    6.9967    2.1339 C   0  0  0  0  0  3  0  0  0  0  0  0
   -1.7533    6.3409    0.9184 C   0  0  0  0  0  3  0  0  0  0  0  0
   -1.6076    4.9647    0.8857 C   0  0  0  0  0  3  0  0  0  0  0  0
   -2.8771    0.1389    1.0107 C   0  0  0  0  0  0  0  0  0  0  0  0
   -4.6621    0.4145    2.9136 H   0  0  0  0  0  0  0  0  0  0  0  0
   -3.5364    0.2094    4.2703 H   0  0  0  0  0  0  0  0  0  0  0  0
   -3.7321   -1.0876    3.0804 H   0  0  0  0  0  0  0  0  0  0  0  0
   -3.5741    2.3987    1.9526 H   0  0  0  0  0  0  0  0  0  0  0  0
   -2.8225    2.2897    3.5632 H   0  0  0  0  0  0  0  0  0  0  0  0
   -1.2072    2.4225    0.9860 H   0  0  0  0  0  0  0  0  0  0  0  0
    0.5388    2.6402    2.5562 H   0  0  0  0  0  0  0  0  0  0  0  0
   -0.5066    2.5837    3.8202 H   0  0  0  0  0  0  0  0  0  0  0  0
   -1.6728    4.3405    4.2148 H   0  0  0  0  0  0  0  0  0  0  0  0
   -1.9311    6.7777    4.2652 H   0  0  0  0  0  0  0  0  0  0  0  0
   -1.9867    8.0729    2.1605 H   0  0  0  0  0  0  0  0  0  0  0  0
   -1.7732    6.9032   -0.0069 H   0  0  0  0  0  0  0  0  0  0  0  0
   -1.5122    4.4541   -0.0652 H   0  0  0  0  0  0  0  0  0  0  0  0
   -2.7609   -0.9412    0.9400 H   0  0  0  0  0  0  0  0  0  0  0  0
   -2.1708    0.6025    0.3271 H   0  0  0  0  0  0  0  0  0  0  0  0
   -3.8955    0.4184    0.7201 H   0  0  0  0  0  0  0  0  0  0  0  0
   -1.2503    2.5170    5.5848 O   0  0  0  0  0  0  0  0  0  0  0  0
   -1.1110    1.3453    6.0294 C   0  0  0  0  0  0  0  0  0  0  0  0
    0.1059    0.9547    6.8393 C   0  0  0  0  0  0  0  0  0  0  0  0
    0.5223    1.7701    7.8280 C   0  0  0  0  0  0  0  0  0  0  0  0
    1.6593    1.4868    8.7749 C   0  0  0  0  0  3  0  0  0  0  0  0
    2.5141    0.4102    8.5876 C   0  0  0  0  0  3  0  0  0  0  0  0
    3.5700    0.2071    9.4923 C   0  0  0  0  0  3  0  0  0  0  0  0
    3.7442    1.0444   10.5267 C   0  0  0  0  0  3  0  0  0  0  0  0
    2.8928    2.1079   10.7075 C   0  0  0  0  0  3  0  0  0  0  0  0
    1.8582    2.3163    9.8220 C   0  0  0  0  0  3  0  0  0  0  0  0
   -2.3498    0.6515    6.5639 C   0  0  0  0  0  3  0  0  0  0  0  0
   -3.5670    1.2912    6.3868 C   0  0  0  0  0  3  0  0  0  0  0  0
   -4.7364    0.7508    6.9485 C   0  0  0  0  0  3  0  0  0  0  0  0
   -4.6479   -0.3808    7.6655 C   0  0  0  0  0  3  0  0  0  0  0  0
   -5.8893   -1.0090    8.2771 C   0  0  0  0  0  0  0  0  0  0  0  0
   -6.9337   -0.1783    8.3110 F   0  0  0  0  0  0  0  0  0  0  0  0
   -6.2901   -2.0846    7.5933 F   0  0  0  0  0  0  0  0  0  0  0  0
   -5.6879   -1.4211    9.5311 F   0  0  0  0  0  0  0  0  0  0  0  0
   -3.4411   -1.0109    7.8573 C   0  0  0  0  0  3  0  0  0  0  0  0
   -2.2989   -0.4783    7.3007 C   0  0  0  0  0  3  0  0  0  0  0  0
    0.5638    0.0062    6.6431 H   0  0  0  0  0  0  0  0  0  0  0  0
    0.0181    2.7035    7.9832 H   0  0  0  0  0  0  0  0  0  0  0  0
    2.3954   -0.2592    7.7592 H   0  0  0  0  0  0  0  0  0  0  0  0
    4.2274   -0.6245    9.3277 H   0  0  0  0  0  0  0  0  0  0  0  0
    4.5504    0.8938   11.2188 H   0  0  0  0  0  0  0  0  0  0  0  0
    3.0330    2.7782   11.5332 H   0  0  0  0  0  0  0  0  0  0  0  0
    1.2046    3.1537    9.9737 H   0  0  0  0  0  0  0  0  0  0  0  0
   -3.6055    2.2172    5.8478 H   0  0  0  0  0  0  0  0  0  0  0  0
   -5.6721    1.2554    6.8073 H   0  0  0  0  0  0  0  0  0  0  0  0
   -3.3887   -1.9051    8.4471 H   0  0  0  0  0  0  0  0  0  0  0  0
   -1.3638   -0.9732    7.4756 H   0  0  0  0  0  0  0  0  0  0  0  0
  1  2  1  0  0  0  0
  1 52  1  0  0  0  0
  1 53  1  0  0  0  0
  1 54  1  0  0  0  0
  2  3  1  0  0  0  0
  2 50  1  0  0  0  0
  3  4  1  0  0  0  0
  3 55  1  0  0  0  0
  4  5  1  0  0  0  0
  4 56  1  0  0  0  0
  5  6  1  0  0  0  0
  5 49  1  0  0  0  0
  6  7  1  0  0  0  0
  6 14  1  0  0  0  0
  6 51  1  0  0  0  0
  7  8  1  0  0  0  0
  7 13  1  0  0  0  0
  8  9  1  0  0  0  0
  8 57  1  0  0  0  0
  9 10  1  0  0  0  0
  9 58  1  0  0  0  0
 10 11  1  0  0  0  0
 10 12  1  0  0  0  0
 11 59  1  0  0  0  0
 11 60  1  0  0  0  0
 11 61  1  0  0  0  0
 12 13  1  0  0  0  0
 12 62  1  0  0  0  0
 13 63  1  0  0  0  0
 14 15  1  0  0  0  0
 14 48  1  0  0  0  0
 15 16  1  0  0  0  0
 15 41  1  0  0  0  0
 16 17  1  0  0  0  0
 16 40  1  0  0  0  0
 17 18  1  0  0  0  0
 17 33  1  0  0  0  0
 18 19  1  0  0  0  0
 18 26  1  0  0  0  0
 19 20  1  0  0  0  0
 19 25  1  0  0  0  0
 20 21  1  0  0  0  0
 20 64  1  0  0  0  0
 21 22  1  0  0  0  0
 21 65  1  0  0  0  0
 22 23  1  0  0  0  0
 22 24  1  0  0  0  0
 23 66  1  0  0  0  0
 23 67  1  0  0  0  0
 23 68  1  0  0  0  0
 24 25  1  0  0  0  0
 24 69  1  0  0  0  0
 25 70  1  0  0  0  0
 26 27  1  0  0  0  0
 26 32  1  0  0  0  0
 27 28  1  0  0  0  0
 27 71  1  0  0  0  0
 28 29  1  0  0  0  0
 28 72  1  0  0  0  0
 29 30  1  0  0  0  0
 29 31  1  0  0  0  0
 30 73  1  0  0  0  0
 30 74  1  0  0  0  0
 30 75  1  0  0  0  0
 31 32  1  0  0  0  0
 31 76  1  0  0  0  0
 32 77  1  0  0  0  0
 33 34  1  0  0  0  0
 33 78  1  0  0  0  0
 34 35  1  0  0  0  0
 34 79  1  0  0  0  0
 35 36  1  0  0  0  0
 35 40  1  0  0  0  0
 36 37  1  0  0  0  0
 36 80  1  0  0  0  0
 37 38  1  0  0  0  0
 37 81  1  0  0  0  0
 38 39  1  0  0  0  0
 38 82  1  0  0  0  0
 39 40  1  0  0  0  0
 39 83  1  0  0  0  0
 41 42  1  0  0  0  0
 41 46  1  0  0  0  0
 42 43  1  0  0  0  0
 42 84  1  0  0  0  0
 43 44  1  0  0  0  0
 43 85  1  0  0  0  0
 44 45  1  0  0  0  0
 44 86  1  0  0  0  0
 45 46  1  0  0  0  0
 45 87  1  0  0  0  0
 46 47  1  0  0  0  0
 47 48  1  0  0  0  0
 47 88  1  0  0  0  0
 48 89  1  0  0  0  0
 49 50  1  0  0  0  0
 49 90  1  0  0  0  0
 50 91  1  0  0  0  0
 51 18  1  0  0  0  0
 51 94  1  0  0  0  0
 92 51  1  0  0  0  0
 93 51  1  0  0  0  0
 94 95  1  0  0  0  0
 94 96  1  0  0  0  0
 94105  1  0  0  0  0
 95106  1  0  0  0  0
 95107  1  0  0  0  0
 95108  1  0  0  0  0
 96 97  1  0  0  0  0
 96109  1  0  0  0  0
 96110  1  0  0  0  0
 97 98  1  0  0  0  0
 97 99  1  0  0  0  0
 97111  1  0  0  0  0
 98112  1  0  0  0  0
 98113  1  0  0  0  0
 98 51  1  0  0  0  0
 99100  1  0  0  0  0
 99104  1  0  0  0  0
100101  1  0  0  0  0
100114  1  0  0  0  0
101102  1  0  0  0  0
101115  1  0  0  0  0
102103  1  0  0  0  0
102116  1  0  0  0  0
103104  1  0  0  0  0
103117  1  0  0  0  0
104118  1  0  0  0  0
105119  1  0  0  0  0
105120  1  0  0  0  0
105121  1  0  0  0  0
122123  2  0  0  0  0
122113  1  0  0  0  0
123124  1  0  0  0  0
123132  1  0  0  0  0
123 92  1  0  0  0  0
124125  2  0  0  0  0
124142  1  0  0  0  0
125126  1  0  0  0  0
125143  1  0  0  0  0
126127  1  0  0  0  0
126131  1  0  0  0  0
127128  1  0  0  0  0
127144  1  0  0  0  0
128129  1  0  0  0  0
128145  1  0  0  0  0
129130  1  0  0  0  0
129146  1  0  0  0  0
130131  1  0  0  0  0
130147  1  0  0  0  0
131148  1  0  0  0  0
132133  1  0  0  0  0
132141  1  0  0  0  0
133134  1  0  0  0  0
133149  1  0  0  0  0
134135  1  0  0  0  0
134150  1  0  0  0  0
135136  1  0  0  0  0
135140  1  0  0  0  0
136137  1  0  0  0  0
136138  1  0  0  0  0
136139  1  0  0  0  0
140141  1  0  0  0  0
140151  1  0  0  0  0
141152  1  0  0  0  0
M  END
