 energy: -194.325192800443 gnorm: 0.000663792627 xtb: 6.7.1 (edcfbbe)
          07072518063D

140154  0     0  0            999 V2000
    6.9053   -2.2525    6.3135 C   0  0  0  0  0  0  0  0  0  0  0  0
    5.7543   -1.6499    5.5613 C   0  0  0  0  0  3  0  0  0  0  0  0
    5.8771   -1.3466    4.2080 C   0  0  0  0  0  3  0  0  0  0  0  0
    4.8174   -0.8135    3.4968 C   0  0  0  0  0  3  0  0  0  0  0  0
    3.6093   -0.5555    4.1430 C   0  0  0  0  0  3  0  0  0  0  0  0
    2.1563    0.1805    3.2885 P   0  0  0  0  0  4  0  0  0  0  0  0
    2.9238    1.6809    2.5342 C   0  0  0  0  0  3  0  0  0  0  0  0
    4.1990    2.1441    2.8455 C   0  0  0  0  0  3  0  0  0  0  0  0
    4.6679    3.3350    2.3152 C   0  0  0  0  0  3  0  0  0  0  0  0
    3.8801    4.1085    1.4714 C   0  0  0  0  0  3  0  0  0  0  0  0
    4.3886    5.3946    0.8862 C   0  0  0  0  0  0  0  0  0  0  0  0
    2.5943    3.6618    1.1826 C   0  0  0  0  0  3  0  0  0  0  0  0
    2.1217    2.4756    1.7135 C   0  0  0  0  0  3  0  0  0  0  0  0
    2.1225   -0.9785    1.8493 C   0  0  0  0  0  3  0  0  0  0  0  0
    2.0741   -2.3452    2.0714 C   0  0  0  0  0  3  0  0  0  0  0  0
    2.0347   -2.9167    3.4445 C   0  0  0  0  0  3  0  0  0  0  0  0
    0.8951   -2.8045    4.2265 C   0  0  0  0  0  3  0  0  0  0  0  0
   -0.4732   -1.6487    3.7819 P   0  0  0  0  0  4  0  0  0  0  0  0
   -1.9194   -2.3575    4.6806 C   0  0  0  0  0  3  0  0  0  0  0  0
   -2.4677   -3.6096    4.4178 C   0  0  0  0  0  3  0  0  0  0  0  0
   -3.5924   -4.0462    5.0989 C   0  0  0  0  0  3  0  0  0  0  0  0
   -4.2128   -3.2495    6.0541 C   0  0  0  0  0  3  0  0  0  0  0  0
   -5.4521   -3.7144    6.7630 C   0  0  0  0  0  0  0  0  0  0  0  0
   -3.6639   -1.9988    6.3194 C   0  0  0  0  0  3  0  0  0  0  0  0
   -2.5378   -1.5621    5.6451 C   0  0  0  0  0  3  0  0  0  0  0  0
   -0.9124   -2.3106    2.1213 C   0  0  0  0  0  3  0  0  0  0  0  0
   -0.7304   -3.6535    1.7936 C   0  0  0  0  0  3  0  0  0  0  0  0
   -1.1303   -4.1391    0.5622 C   0  0  0  0  0  3  0  0  0  0  0  0
   -1.7074   -3.2997   -0.3863 C   0  0  0  0  0  3  0  0  0  0  0  0
   -2.1124   -3.8433   -1.7258 C   0  0  0  0  0  0  0  0  0  0  0  0
   -1.8953   -1.9630   -0.0562 C   0  0  0  0  0  3  0  0  0  0  0  0
   -1.5133   -1.4799    1.1842 C   0  0  0  0  0  3  0  0  0  0  0  0
    0.8225   -3.4886    5.4570 C   0  0  0  0  0  3  0  0  0  0  0  0
    1.8718   -4.2284    5.9217 C   0  0  0  0  0  3  0  0  0  0  0  0
    3.0635   -4.3338    5.1727 C   0  0  0  0  0  3  0  0  0  0  0  0
    4.1641   -5.0920    5.6328 C   0  0  0  0  0  3  0  0  0  0  0  0
    5.2921   -5.2234    4.8706 C   0  0  0  0  0  3  0  0  0  0  0  0
    5.3707   -4.5912    3.6185 C   0  0  0  0  0  3  0  0  0  0  0  0
    4.3279   -3.8389    3.1524 C   0  0  0  0  0  3  0  0  0  0  0  0
    3.1398   -3.6922    3.9087 C   0  0  0  0  0  3  0  0  0  0  0  0
    2.0466   -3.2487    0.9643 C   0  0  0  0  0  3  0  0  0  0  0  0
    2.0530   -4.6561    1.1217 C   0  0  0  0  0  3  0  0  0  0  0  0
    1.9960   -5.4904    0.0392 C   0  0  0  0  0  3  0  0  0  0  0  0
    1.9158   -4.9700   -1.2628 C   0  0  0  0  0  3  0  0  0  0  0  0
    1.9113   -3.6159   -1.4530 C   0  0  0  0  0  3  0  0  0  0  0  0
    1.9856   -2.7289   -0.3554 C   0  0  0  0  0  3  0  0  0  0  0  0
    2.0091   -1.3300   -0.5408 C   0  0  0  0  0  3  0  0  0  0  0  0
    2.0969   -0.4863    0.5282 C   0  0  0  0  0  3  0  0  0  0  0  0
    3.4767   -0.8760    5.4873 C   0  0  0  0  0  3  0  0  0  0  0  0
    4.5374   -1.4197    6.1919 C   0  0  0  0  0  3  0  0  0  0  0  0
    0.0133    0.6125    4.0845 Ru  0  0  0  0  0  0  0  0  0  0  0  0
    6.8321   -2.0323    7.3782 H   0  0  0  0  0  0  0  0  0  0  0  0
    7.8571   -1.8781    5.9363 H   0  0  0  0  0  0  0  0  0  0  0  0
    6.8934   -3.3373    6.1882 H   0  0  0  0  0  0  0  0  0  0  0  0
    6.8179   -1.5364    3.7053 H   0  0  0  0  0  0  0  0  0  0  0  0
    4.9189   -0.5972    2.4399 H   0  0  0  0  0  0  0  0  0  0  0  0
    4.8350    1.5858    3.5198 H   0  0  0  0  0  0  0  0  0  0  0  0
    5.6654    3.6718    2.5717 H   0  0  0  0  0  0  0  0  0  0  0  0
    5.2984    5.7207    1.3899 H   0  0  0  0  0  0  0  0  0  0  0  0
    3.6356    6.1784    0.9721 H   0  0  0  0  0  0  0  0  0  0  0  0
    4.6122    5.2609   -0.1741 H   0  0  0  0  0  0  0  0  0  0  0  0
    1.9528    4.2581    0.5450 H   0  0  0  0  0  0  0  0  0  0  0  0
    1.1030    2.1666    1.5160 H   0  0  0  0  0  0  0  0  0  0  0  0
   -2.0251   -4.2611    3.6760 H   0  0  0  0  0  0  0  0  0  0  0  0
   -3.9964   -5.0272    4.8790 H   0  0  0  0  0  0  0  0  0  0  0  0
   -6.3379   -3.3914    6.2117 H   0  0  0  0  0  0  0  0  0  0  0  0
   -5.5066   -3.2906    7.7659 H   0  0  0  0  0  0  0  0  0  0  0  0
   -5.4760   -4.8016    6.8335 H   0  0  0  0  0  0  0  0  0  0  0  0
   -4.1170   -1.3577    7.0659 H   0  0  0  0  0  0  0  0  0  0  0  0
   -2.1080   -0.6032    5.9010 H   0  0  0  0  0  0  0  0  0  0  0  0
   -0.2463   -4.3218    2.4957 H   0  0  0  0  0  0  0  0  0  0  0  0
   -0.9752   -5.1843    0.3237 H   0  0  0  0  0  0  0  0  0  0  0  0
   -2.3628   -3.0374   -2.4151 H   0  0  0  0  0  0  0  0  0  0  0  0
   -2.9842   -4.4923   -1.6216 H   0  0  0  0  0  0  0  0  0  0  0  0
   -1.3026   -4.4356   -2.1527 H   0  0  0  0  0  0  0  0  0  0  0  0
   -2.3437   -1.2914   -0.7782 H   0  0  0  0  0  0  0  0  0  0  0  0
   -1.6520   -0.4341    1.4269 H   0  0  0  0  0  0  0  0  0  0  0  0
   -0.0991   -3.4386    6.0212 H   0  0  0  0  0  0  0  0  0  0  0  0
    1.7993   -4.7538    6.8661 H   0  0  0  0  0  0  0  0  0  0  0  0
    4.0911   -5.5713    6.6015 H   0  0  0  0  0  0  0  0  0  0  0  0
    6.1269   -5.8165    5.2227 H   0  0  0  0  0  0  0  0  0  0  0  0
    6.2694   -4.6992    3.0243 H   0  0  0  0  0  0  0  0  0  0  0  0
    4.3993   -3.3500    2.1899 H   0  0  0  0  0  0  0  0  0  0  0  0
    2.1071   -5.0793    2.1160 H   0  0  0  0  0  0  0  0  0  0  0  0
    2.0071   -6.5638    0.1828 H   0  0  0  0  0  0  0  0  0  0  0  0
    1.8606   -5.6460   -2.1070 H   0  0  0  0  0  0  0  0  0  0  0  0
    1.8539   -3.1968   -2.4503 H   0  0  0  0  0  0  0  0  0  0  0  0
    1.9705   -0.9366   -1.5493 H   0  0  0  0  0  0  0  0  0  0  0  0
    2.1482    0.5810    0.3618 H   0  0  0  0  0  0  0  0  0  0  0  0
    2.5125   -0.7048    5.9489 H   0  0  0  0  0  0  0  0  0  0  0  0
    4.4233   -1.6665    7.2405 H   0  0  0  0  0  0  0  0  0  0  0  0
    0.1517    0.5880    5.8288 H   0  0  0  0  0  0  0  0  0  0  0  0
   -0.2900    0.7971    2.5325 H   0  0  0  0  0  0  0  0  0  0  0  0
   -1.9814    1.2813    4.3594 N   0  0  0  0  0  4  0  0  0  0  0  0
   -2.0601    2.6027    3.7300 C   0  0  0  0  0  0  0  0  0  0  0  0
   -0.7989    3.3549    4.0372 C   0  0  0  0  0  0  0  0  0  0  0  0
   -0.7504    4.7347    4.0792 C   0  0  0  0  0  0  0  0  0  0  0  0
    0.4531    5.3751    4.3407 C   0  0  0  0  0  0  0  0  0  0  0  0
    1.5637    4.5821    4.5933 C   0  0  0  0  0  0  0  0  0  0  0  0
    1.4376    3.2113    4.5521 C   0  0  0  0  0  0  0  0  0  0  0  0
    0.2890    2.5826    4.2465 N   0  0  0  0  0  4  0  0  0  0  0  0
   -2.1713    1.4029    5.3617 H   0  0  0  0  0  0  0  0  0  0  0  0
   -2.7025    0.6704    3.9868 H   0  0  0  0  0  0  0  0  0  0  0  0
   -2.1302    2.4680    2.6443 H   0  0  0  0  0  0  0  0  0  0  0  0
   -2.9382    3.1693    4.0671 H   0  0  0  0  0  0  0  0  0  0  0  0
   -1.6539    5.3041    3.9018 H   0  0  0  0  0  0  0  0  0  0  0  0
    0.5154    6.4546    4.3633 H   0  0  0  0  0  0  0  0  0  0  0  0
    2.5233    5.0228    4.8283 H   0  0  0  0  0  0  0  0  0  0  0  0
    2.2795    2.5729    4.7858 H   0  0  0  0  0  0  0  0  0  0  0  0
    0.3466    2.4999    7.3715 C   0  0  0  0  0  0  0  0  0  0  0  0
   -0.4029    1.1758    7.3532 C   0  0  0  0  0  0  0  0  0  0  0  0
    0.1390    0.1457    8.3387 C   0  0  0  0  0  0  0  0  0  0  0  0
    1.6449    0.2629    8.6031 C   0  0  0  0  0  0  0  0  0  0  0  0
    2.0866   -0.7715    9.6437 C   0  0  0  0  0  0  0  0  0  0  0  0
    1.3516   -0.5009   10.9618 C   0  0  0  0  0  0  0  0  0  0  0  0
   -0.1578   -0.6142   10.7236 C   0  0  0  0  0  0  0  0  0  0  0  0
   -0.5942    0.4024    9.6624 C   0  0  0  0  0  0  0  0  0  0  0  0
   -0.4868   -2.0352   10.2559 C   0  0  0  0  0  0  0  0  0  0  0  0
    0.2544   -2.3079    8.9432 C   0  0  0  0  0  0  0  0  0  0  0  0
    1.7661   -2.1890    9.1592 C   0  0  0  0  0  0  0  0  0  0  0  0
   -0.1920   -1.2833    7.8952 C   0  0  0  0  0  0  0  0  0  0  0  0
   -1.6519    1.2560    7.1991 O   0  0  0  0  0  0  0  0  0  0  0  0
    1.3679    2.4162    7.0478 H   0  0  0  0  0  0  0  0  0  0  0  0
    0.3263    2.8656    8.3826 H   0  0  0  0  0  0  0  0  0  0  0  0
   -0.1729    3.2143    6.7585 H   0  0  0  0  0  0  0  0  0  0  0  0
    2.1926    0.1182    7.6888 H   0  0  0  0  0  0  0  0  0  0  0  0
    1.8813    1.2404    8.9859 H   0  0  0  0  0  0  0  0  0  0  0  0
    3.1490   -0.6770    9.8014 H   0  0  0  0  0  0  0  0  0  0  0  0
    1.6583   -1.2141   11.7077 H   0  0  0  0  0  0  0  0  0  0  0  0
    1.5935    0.4857   11.3183 H   0  0  0  0  0  0  0  0  0  0  0  0
   -0.6837   -0.4064   11.6416 H   0  0  0  0  0  0  0  0  0  0  0  0
   -0.3810    1.3969   10.0147 H   0  0  0  0  0  0  0  0  0  0  0  0
   -1.6551    0.3294    9.4960 H   0  0  0  0  0  0  0  0  0  0  0  0
   -1.5474   -2.1329   10.0996 H   0  0  0  0  0  0  0  0  0  0  0  0
   -0.1867   -2.7465   11.0064 H   0  0  0  0  0  0  0  0  0  0  0  0
    0.0148   -3.2988    8.5931 H   0  0  0  0  0  0  0  0  0  0  0  0
    2.0934   -2.9080    9.8906 H   0  0  0  0  0  0  0  0  0  0  0  0
    2.2761   -2.3861    8.2319 H   0  0  0  0  0  0  0  0  0  0  0  0
   -1.2554   -1.3656    7.7566 H   0  0  0  0  0  0  0  0  0  0  0  0
    0.2952   -1.4739    6.9548 H   0  0  0  0  0  0  0  0  0  0  0  0
  1  2  1  0  0  0  0
  1 52  1  0  0  0  0
  1 53  1  0  0  0  0
  1 54  1  0  0  0  0
  2  3  1  0  0  0  0
  2 50  1  0  0  0  0
  3  4  1  0  0  0  0
  3 55  1  0  0  0  0
  4  5  1  0  0  0  0
  4 56  1  0  0  0  0
  5  6  1  0  0  0  0
  5 49  1  0  0  0  0
  6  7  1  0  0  0  0
  6 14  1  0  0  0  0
  6 51  1  0  0  0  0
  7  8  1  0  0  0  0
  7 13  1  0  0  0  0
  8  9  1  0  0  0  0
  8 57  1  0  0  0  0
  9 10  1  0  0  0  0
  9 58  1  0  0  0  0
 10 11  1  0  0  0  0
 10 12  1  0  0  0  0
 11 59  1  0  0  0  0
 11 60  1  0  0  0  0
 11 61  1  0  0  0  0
 12 13  1  0  0  0  0
 12 62  1  0  0  0  0
 13 63  1  0  0  0  0
 14 15  1  0  0  0  0
 14 48  1  0  0  0  0
 15 16  1  0  0  0  0
 15 41  1  0  0  0  0
 16 17  1  0  0  0  0
 16 40  1  0  0  0  0
 17 18  1  0  0  0  0
 17 33  1  0  0  0  0
 18 19  1  0  0  0  0
 18 26  1  0  0  0  0
 19 20  1  0  0  0  0
 19 25  1  0  0  0  0
 20 21  1  0  0  0  0
 20 64  1  0  0  0  0
 21 22  1  0  0  0  0
 21 65  1  0  0  0  0
 22 23  1  0  0  0  0
 22 24  1  0  0  0  0
 23 66  1  0  0  0  0
 23 67  1  0  0  0  0
 23 68  1  0  0  0  0
 24 25  1  0  0  0  0
 24 69  1  0  0  0  0
 25 70  1  0  0  0  0
 26 27  1  0  0  0  0
 26 32  1  0  0  0  0
 27 28  1  0  0  0  0
 27 71  1  0  0  0  0
 28 29  1  0  0  0  0
 28 72  1  0  0  0  0
 29 30  1  0  0  0  0
 29 31  1  0  0  0  0
 30 73  1  0  0  0  0
 30 74  1  0  0  0  0
 30 75  1  0  0  0  0
 31 32  1  0  0  0  0
 31 76  1  0  0  0  0
 32 77  1  0  0  0  0
 33 34  1  0  0  0  0
 33 78  1  0  0  0  0
 34 35  1  0  0  0  0
 34 79  1  0  0  0  0
 35 36  1  0  0  0  0
 35 40  1  0  0  0  0
 36 37  1  0  0  0  0
 36 80  1  0  0  0  0
 37 38  1  0  0  0  0
 37 81  1  0  0  0  0
 38 39  1  0  0  0  0
 38 82  1  0  0  0  0
 39 40  1  0  0  0  0
 39 83  1  0  0  0  0
 41 42  1  0  0  0  0
 41 46  1  0  0  0  0
 42 43  1  0  0  0  0
 42 84  1  0  0  0  0
 43 44  1  0  0  0  0
 43 85  1  0  0  0  0
 44 45  1  0  0  0  0
 44 86  1  0  0  0  0
 45 46  1  0  0  0  0
 45 87  1  0  0  0  0
 46 47  1  0  0  0  0
 47 48  1  0  0  0  0
 47 88  1  0  0  0  0
 48 89  1  0  0  0  0
 49 50  1  0  0  0  0
 49 90  1  0  0  0  0
 50 91  1  0  0  0  0
 51 18  1  0  0  0  0
 51 94  1  0  0  0  0
 92 51  1  0  0  0  0
 93 51  1  0  0  0  0
 94 95  1  0  0  0  0
 94102  1  0  0  0  0
 94103  1  0  0  0  0
 95 96  1  0  0  0  0
 95104  1  0  0  0  0
 95105  1  0  0  0  0
 96 97  1  0  0  0  0
 96101  2  0  0  0  0
 97 98  2  0  0  0  0
 97106  1  0  0  0  0
 98 99  1  0  0  0  0
 98107  1  0  0  0  0
 99100  2  0  0  0  0
 99108  1  0  0  0  0
100101  1  0  0  0  0
100109  1  0  0  0  0
101 51  1  0  0  0  0
110111  1  0  0  0  0
110123  1  0  0  0  0
110124  1  0  0  0  0
110125  1  0  0  0  0
111112  1  0  0  0  0
111122  2  0  0  0  0
111 92  1  0  0  0  0
112113  1  0  0  0  0
112117  1  0  0  0  0
112121  1  0  0  0  0
113114  1  0  0  0  0
113126  1  0  0  0  0
113127  1  0  0  0  0
114115  1  0  0  0  0
114120  1  0  0  0  0
114128  1  0  0  0  0
115116  1  0  0  0  0
115129  1  0  0  0  0
115130  1  0  0  0  0
116117  1  0  0  0  0
116118  1  0  0  0  0
116131  1  0  0  0  0
117132  1  0  0  0  0
117133  1  0  0  0  0
118119  1  0  0  0  0
118134  1  0  0  0  0
118135  1  0  0  0  0
119120  1  0  0  0  0
119121  1  0  0  0  0
119136  1  0  0  0  0
120137  1  0  0  0  0
120138  1  0  0  0  0
121139  1  0  0  0  0
121140  1  0  0  0  0
122102  1  0  0  0  0
M  END
