 energy: -206.968459504588 gnorm: 0.000712295343 xtb: 6.7.1 (edcfbbe)
          07072515423D

149162  0     0  0            999 V2000
    6.9866    0.8057    4.9955 C   0  0  0  0  0  0  0  0  0  0  0  0
    5.6622    0.7899    4.2887 C   0  0  0  0  0  3  0  0  0  0  0  0
    5.5942    0.5949    2.9120 C   0  0  0  0  0  3  0  0  0  0  0  0
    4.3726    0.5354    2.2659 C   0  0  0  0  0  3  0  0  0  0  0  0
    3.1874    0.6617    2.9888 C   0  0  0  0  0  3  0  0  0  0  0  0
    1.5658    0.6347    2.1158 P   0  0  0  0  0  4  0  0  0  0  0  0
    1.7671    2.1920    1.1485 C   0  0  0  0  0  3  0  0  0  0  0  0
    2.6803    3.1862    1.4881 C   0  0  0  0  0  3  0  0  0  0  0  0
    2.6737    4.4053    0.8290 C   0  0  0  0  0  3  0  0  0  0  0  0
    1.7553    4.6737   -0.1786 C   0  0  0  0  0  3  0  0  0  0  0  0
    1.7321    5.9994   -0.8841 C   0  0  0  0  0  0  0  0  0  0  0  0
    0.8310    3.6863   -0.5086 C   0  0  0  0  0  3  0  0  0  0  0  0
    0.8301    2.4702    0.1509 C   0  0  0  0  0  3  0  0  0  0  0  0
    1.9897   -0.6832    0.8974 C   0  0  0  0  0  3  0  0  0  0  0  0
    2.1811   -1.9706    1.3739 C   0  0  0  0  0  3  0  0  0  0  0  0
    2.1093   -2.3238    2.8191 C   0  0  0  0  0  3  0  0  0  0  0  0
    0.8944   -2.4819    3.4689 C   0  0  0  0  0  3  0  0  0  0  0  0
   -0.6169   -1.6844    2.7758 P   0  0  0  0  0  4  0  0  0  0  0  0
   -2.0373   -2.5479    3.5744 C   0  0  0  0  0  3  0  0  0  0  0  0
   -2.8071   -3.5442    2.9807 C   0  0  0  0  0  3  0  0  0  0  0  0
   -3.9025   -4.0747    3.6421 C   0  0  0  0  0  3  0  0  0  0  0  0
   -4.2721   -3.6275    4.9055 C   0  0  0  0  0  3  0  0  0  0  0  0
   -5.4444   -4.2284    5.6262 C   0  0  0  0  0  0  0  0  0  0  0  0
   -3.5209   -2.6110    5.4871 C   0  0  0  0  0  3  0  0  0  0  0  0
   -2.4302   -2.0732    4.8269 C   0  0  0  0  0  3  0  0  0  0  0  0
   -0.6341   -2.5442    1.1468 C   0  0  0  0  0  3  0  0  0  0  0  0
   -0.3652   -3.9119    1.0978 C   0  0  0  0  0  3  0  0  0  0  0  0
   -0.3889   -4.5892   -0.1075 C   0  0  0  0  0  3  0  0  0  0  0  0
   -0.6649   -3.9193   -1.2966 C   0  0  0  0  0  3  0  0  0  0  0  0
   -0.6719   -4.6674   -2.5984 C   0  0  0  0  0  0  0  0  0  0  0  0
   -0.9368   -2.5578   -1.2433 C   0  0  0  0  0  3  0  0  0  0  0  0
   -0.9306   -1.8794   -0.0358 C   0  0  0  0  0  3  0  0  0  0  0  0
    0.8537   -3.0826    4.7434 C   0  0  0  0  0  3  0  0  0  0  0  0
    2.0003   -3.4130    5.4070 C   0  0  0  0  0  3  0  0  0  0  0  0
    3.2620   -3.1581    4.8271 C   0  0  0  0  0  3  0  0  0  0  0  0
    4.4656   -3.4211    5.5194 C   0  0  0  0  0  3  0  0  0  0  0  0
    5.6782   -3.2253    4.9175 C   0  0  0  0  0  3  0  0  0  0  0  0
    5.7369   -2.7775    3.5871 C   0  0  0  0  0  3  0  0  0  0  0  0
    4.5899   -2.5070    2.8931 C   0  0  0  0  0  3  0  0  0  0  0  0
    3.3191   -2.6631    3.4973 C   0  0  0  0  0  3  0  0  0  0  0  0
    2.4873   -3.0248    0.4603 C   0  0  0  0  0  3  0  0  0  0  0  0
    2.7041   -4.3584    0.8839 C   0  0  0  0  0  3  0  0  0  0  0  0
    2.9754   -5.3504   -0.0179 C   0  0  0  0  0  3  0  0  0  0  0  0
    3.0386   -5.0699   -1.3928 C   0  0  0  0  0  3  0  0  0  0  0  0
    2.8319   -3.7930   -1.8373 C   0  0  0  0  0  3  0  0  0  0  0  0
    2.5555   -2.7454   -0.9299 C   0  0  0  0  0  3  0  0  0  0  0  0
    2.3546   -1.4207   -1.3741 C   0  0  0  0  0  3  0  0  0  0  0  0
    2.0873   -0.4206   -0.4839 C   0  0  0  0  0  3  0  0  0  0  0  0
    3.2514    0.8815    4.3581 C   0  0  0  0  0  3  0  0  0  0  0  0
    4.4776    0.9477    4.9983 C   0  0  0  0  0  3  0  0  0  0  0  0
   -0.5580    0.6072    3.0093 Ru  0  0  0  0  0  0  0  0  0  0  0  0
    6.9476    1.4347    5.8846 H   0  0  0  0  0  0  0  0  0  0  0  0
    7.7772    1.1668    4.3376 H   0  0  0  0  0  0  0  0  0  0  0  0
    7.2429   -0.2086    5.3096 H   0  0  0  0  0  0  0  0  0  0  0  0
    6.5092    0.4897    2.3415 H   0  0  0  0  0  0  0  0  0  0  0  0
    4.3318    0.3989    1.1916 H   0  0  0  0  0  0  0  0  0  0  0  0
    3.4051    3.0124    2.2730 H   0  0  0  0  0  0  0  0  0  0  0  0
    3.3964    5.1630    1.1080 H   0  0  0  0  0  0  0  0  0  0  0  0
    0.8234    6.5466   -0.6255 H   0  0  0  0  0  0  0  0  0  0  0  0
    1.7392    5.8570   -1.9651 H   0  0  0  0  0  0  0  0  0  0  0  0
    2.5929    6.6059   -0.6038 H   0  0  0  0  0  0  0  0  0  0  0  0
    0.1005    3.8793   -1.2852 H   0  0  0  0  0  0  0  0  0  0  0  0
    0.0822    1.7229   -0.0826 H   0  0  0  0  0  0  0  0  0  0  0  0
   -2.5640   -3.9116    1.9924 H   0  0  0  0  0  0  0  0  0  0  0  0
   -4.4851   -4.8515    3.1614 H   0  0  0  0  0  0  0  0  0  0  0  0
   -5.9218   -3.4908    6.2716 H   0  0  0  0  0  0  0  0  0  0  0  0
   -5.1096   -5.0579    6.2527 H   0  0  0  0  0  0  0  0  0  0  0  0
   -6.1801   -4.6137    4.9204 H   0  0  0  0  0  0  0  0  0  0  0  0
   -3.7946   -2.2261    6.4621 H   0  0  0  0  0  0  0  0  0  0  0  0
   -1.8779   -1.2648    5.2889 H   0  0  0  0  0  0  0  0  0  0  0  0
   -0.1289   -4.4429    2.0126 H   0  0  0  0  0  0  0  0  0  0  0  0
   -0.1774   -5.6513   -0.1315 H   0  0  0  0  0  0  0  0  0  0  0  0
   -0.7387   -3.9806   -3.4419 H   0  0  0  0  0  0  0  0  0  0  0  0
   -1.5226   -5.3487   -2.6391 H   0  0  0  0  0  0  0  0  0  0  0  0
    0.2389   -5.2610   -2.6976 H   0  0  0  0  0  0  0  0  0  0  0  0
   -1.1540   -2.0206   -2.1588 H   0  0  0  0  0  0  0  0  0  0  0  0
   -1.1397   -0.8183    0.0059 H   0  0  0  0  0  0  0  0  0  0  0  0
   -0.1133   -3.2969    5.1790 H   0  0  0  0  0  0  0  0  0  0  0  0
    1.9580   -3.8690    6.3886 H   0  0  0  0  0  0  0  0  0  0  0  0
    4.4064   -3.7814    6.5393 H   0  0  0  0  0  0  0  0  0  0  0  0
    6.5965   -3.4253    5.4554 H   0  0  0  0  0  0  0  0  0  0  0  0
    6.7014   -2.6458    3.1128 H   0  0  0  0  0  0  0  0  0  0  0  0
    4.6425   -2.1646    1.8682 H   0  0  0  0  0  0  0  0  0  0  0  0
    2.6515   -4.5913    1.9393 H   0  0  0  0  0  0  0  0  0  0  0  0
    3.1397   -6.3643    0.3251 H   0  0  0  0  0  0  0  0  0  0  0  0
    3.2514   -5.8686   -2.0922 H   0  0  0  0  0  0  0  0  0  0  0  0
    2.8759   -3.5608   -2.8945 H   0  0  0  0  0  0  0  0  0  0  0  0
    2.4247   -1.2091   -2.4340 H   0  0  0  0  0  0  0  0  0  0  0  0
    1.9609    0.5936   -0.8384 H   0  0  0  0  0  0  0  0  0  0  0  0
    2.3298    1.0065    4.9123 H   0  0  0  0  0  0  0  0  0  0  0  0
    4.5202    1.1316    6.0649 H   0  0  0  0  0  0  0  0  0  0  0  0
   -0.0376    0.6891    4.6782 H   0  0  0  0  0  0  0  0  0  0  0  0
   -1.2067    0.6784    1.5552 H   0  0  0  0  0  0  0  0  0  0  0  0
   -2.5085    0.9782    3.7985 N   0  0  0  0  0  4  0  0  0  0  0  0
   -3.0007    2.3530    3.6411 C   0  0  0  0  0  0  0  0  0  0  0  0
   -4.4220    2.4236    3.1366 C   0  0  0  0  0  3  0  0  0  0  0  0
   -5.3285    3.3147    3.7004 C   0  0  0  0  0  3  0  0  0  0  0  0
   -6.6157    3.4172    3.1984 C   0  0  0  0  0  3  0  0  0  0  0  0
   -7.0090    2.6297    2.1280 C   0  0  0  0  0  3  0  0  0  0  0  0
   -6.1095    1.7428    1.5583 C   0  0  0  0  0  3  0  0  0  0  0  0
   -4.8209    1.6431    2.0557 C   0  0  0  0  0  3  0  0  0  0  0  0
   -2.0804    3.0993    2.6551 C   0  0  0  0  0  0  0  0  0  0  0  0
   -0.7006    2.7421    3.0064 N   0  0  0  0  0  4  0  0  0  0  0  0
   -2.3727    4.5803    2.6639 C   0  0  0  0  0  3  0  0  0  0  0  0
   -1.8437    5.4341    3.6272 C   0  0  0  0  0  3  0  0  0  0  0  0
   -2.1670    6.7809    3.6290 C   0  0  0  0  0  3  0  0  0  0  0  0
   -3.0301    7.2931    2.6731 C   0  0  0  0  0  3  0  0  0  0  0  0
   -3.5657    6.4502    1.7124 C   0  0  0  0  0  3  0  0  0  0  0  0
   -3.2362    5.1045    1.7078 C   0  0  0  0  0  3  0  0  0  0  0  0
   -2.4663    0.7587    4.8017 H   0  0  0  0  0  0  0  0  0  0  0  0
   -3.1696    0.3217    3.3937 H   0  0  0  0  0  0  0  0  0  0  0  0
   -2.9389    2.8629    4.6112 H   0  0  0  0  0  0  0  0  0  0  0  0
   -5.0227    3.9341    4.5347 H   0  0  0  0  0  0  0  0  0  0  0  0
   -7.3130    4.1148    3.6446 H   0  0  0  0  0  0  0  0  0  0  0  0
   -8.0152    2.7093    1.7362 H   0  0  0  0  0  0  0  0  0  0  0  0
   -6.4095    1.1288    0.7183 H   0  0  0  0  0  0  0  0  0  0  0  0
   -4.1194    0.9620    1.5900 H   0  0  0  0  0  0  0  0  0  0  0  0
   -2.2667    2.7057    1.6479 H   0  0  0  0  0  0  0  0  0  0  0  0
   -0.0629    3.1763    2.3439 H   0  0  0  0  0  0  0  0  0  0  0  0
   -0.4855    3.1053    3.9298 H   0  0  0  0  0  0  0  0  0  0  0  0
   -1.1749    5.0594    4.3926 H   0  0  0  0  0  0  0  0  0  0  0  0
   -1.7453    7.4323    4.3843 H   0  0  0  0  0  0  0  0  0  0  0  0
   -3.2845    8.3454    2.6786 H   0  0  0  0  0  0  0  0  0  0  0  0
   -4.2421    6.8409    0.9624 H   0  0  0  0  0  0  0  0  0  0  0  0
   -3.6586    4.4478    0.9571 H   0  0  0  0  0  0  0  0  0  0  0  0
   -1.5535    0.6327    6.4824 O   0  0  0  0  0  0  0  0  0  0  0  0
   -0.3033    0.6504    6.3815 C   0  0  0  0  0  0  0  0  0  0  0  0
    0.4547    1.8457    6.8354 C   0  0  0  0  0  0  0  0  0  0  0  0
    0.1080    3.2018    6.2910 C   0  0  0  0  0  0  0  0  0  0  0  0
    1.3523    1.7354    7.8295 C   0  0  0  0  0  0  0  0  0  0  0  0
    1.6828    0.4677    8.6026 C   0  0  0  0  0  0  0  0  0  0  0  0
    3.1427    0.0444    8.3616 C   0  0  0  0  0  0  0  0  0  0  0  0
    1.5196    0.8151   10.1621 C   0  0  0  0  0  0  0  0  0  0  0  0
    0.7233   -0.6357    8.2312 C   0  0  0  0  0  0  0  0  0  0  0  0
    0.4551   -0.6012    6.6517 C   0  0  0  0  0  0  0  0  0  0  0  0
    0.7209    3.4179    5.4337 H   0  0  0  0  0  0  0  0  0  0  0  0
   -0.9351    3.2094    6.0294 H   0  0  0  0  0  0  0  0  0  0  0  0
    0.2853    3.9659    7.0266 H   0  0  0  0  0  0  0  0  0  0  0  0
    1.8482    2.6188    8.1822 H   0  0  0  0  0  0  0  0  0  0  0  0
    3.4096   -0.7445    9.0415 H   0  0  0  0  0  0  0  0  0  0  0  0
    3.2656   -0.3143    7.3556 H   0  0  0  0  0  0  0  0  0  0  0  0
    3.8050    0.8755    8.5236 H   0  0  0  0  0  0  0  0  0  0  0  0
    0.5320    1.2000   10.3386 H   0  0  0  0  0  0  0  0  0  0  0  0
    1.6655   -0.0809   10.7371 H   0  0  0  0  0  0  0  0  0  0  0  0
    2.2498    1.5499   10.4481 H   0  0  0  0  0  0  0  0  0  0  0  0
    1.1167   -1.6030    8.4910 H   0  0  0  0  0  0  0  0  0  0  0  0
   -0.2262   -0.4956    8.7177 H   0  0  0  0  0  0  0  0  0  0  0  0
    1.3965   -0.6435    6.1339 H   0  0  0  0  0  0  0  0  0  0  0  0
   -0.1338   -1.4645    6.3999 H   0  0  0  0  0  0  0  0  0  0  0  0
  1  2  1  0  0  0  0
  1 52  1  0  0  0  0
  1 53  1  0  0  0  0
  1 54  1  0  0  0  0
  2  3  1  0  0  0  0
  2 50  1  0  0  0  0
  3  4  1  0  0  0  0
  3 55  1  0  0  0  0
  4  5  1  0  0  0  0
  4 56  1  0  0  0  0
  5  6  1  0  0  0  0
  5 49  1  0  0  0  0
  6  7  1  0  0  0  0
  6 14  1  0  0  0  0
  6 51  1  0  0  0  0
  7  8  1  0  0  0  0
  7 13  1  0  0  0  0
  8  9  1  0  0  0  0
  8 57  1  0  0  0  0
  9 10  1  0  0  0  0
  9 58  1  0  0  0  0
 10 11  1  0  0  0  0
 10 12  1  0  0  0  0
 11 59  1  0  0  0  0
 11 60  1  0  0  0  0
 11 61  1  0  0  0  0
 12 13  1  0  0  0  0
 12 62  1  0  0  0  0
 13 63  1  0  0  0  0
 14 15  1  0  0  0  0
 14 48  1  0  0  0  0
 15 16  1  0  0  0  0
 15 41  1  0  0  0  0
 16 17  1  0  0  0  0
 16 40  1  0  0  0  0
 17 18  1  0  0  0  0
 17 33  1  0  0  0  0
 18 19  1  0  0  0  0
 18 26  1  0  0  0  0
 19 20  1  0  0  0  0
 19 25  1  0  0  0  0
 20 21  1  0  0  0  0
 20 64  1  0  0  0  0
 21 22  1  0  0  0  0
 21 65  1  0  0  0  0
 22 23  1  0  0  0  0
 22 24  1  0  0  0  0
 23 66  1  0  0  0  0
 23 67  1  0  0  0  0
 23 68  1  0  0  0  0
 24 25  1  0  0  0  0
 24 69  1  0  0  0  0
 25 70  1  0  0  0  0
 26 27  1  0  0  0  0
 26 32  1  0  0  0  0
 27 28  1  0  0  0  0
 27 71  1  0  0  0  0
 28 29  1  0  0  0  0
 28 72  1  0  0  0  0
 29 30  1  0  0  0  0
 29 31  1  0  0  0  0
 30 73  1  0  0  0  0
 30 74  1  0  0  0  0
 30 75  1  0  0  0  0
 31 32  1  0  0  0  0
 31 76  1  0  0  0  0
 32 77  1  0  0  0  0
 33 34  1  0  0  0  0
 33 78  1  0  0  0  0
 34 35  1  0  0  0  0
 34 79  1  0  0  0  0
 35 36  1  0  0  0  0
 35 40  1  0  0  0  0
 36 37  1  0  0  0  0
 36 80  1  0  0  0  0
 37 38  1  0  0  0  0
 37 81  1  0  0  0  0
 38 39  1  0  0  0  0
 38 82  1  0  0  0  0
 39 40  1  0  0  0  0
 39 83  1  0  0  0  0
 41 42  1  0  0  0  0
 41 46  1  0  0  0  0
 42 43  1  0  0  0  0
 42 84  1  0  0  0  0
 43 44  1  0  0  0  0
 43 85  1  0  0  0  0
 44 45  1  0  0  0  0
 44 86  1  0  0  0  0
 45 46  1  0  0  0  0
 45 87  1  0  0  0  0
 46 47  1  0  0  0  0
 47 48  1  0  0  0  0
 47 88  1  0  0  0  0
 48 89  1  0  0  0  0
 49 50  1  0  0  0  0
 49 90  1  0  0  0  0
 50 91  1  0  0  0  0
 51 18  1  0  0  0  0
 51 94  1  0  0  0  0
 92 51  1  0  0  0  0
 93 51  1  0  0  0  0
 94 95  1  0  0  0  0
 94110  1  0  0  0  0
 94111  1  0  0  0  0
 95 96  1  0  0  0  0
 95102  1  0  0  0  0
 95112  1  0  0  0  0
 96 97  1  0  0  0  0
 96101  1  0  0  0  0
 97 98  1  0  0  0  0
 97113  1  0  0  0  0
 98 99  1  0  0  0  0
 98114  1  0  0  0  0
 99100  1  0  0  0  0
 99115  1  0  0  0  0
100101  1  0  0  0  0
100116  1  0  0  0  0
101117  1  0  0  0  0
102103  1  0  0  0  0
102104  1  0  0  0  0
102118  1  0  0  0  0
103119  1  0  0  0  0
103120  1  0  0  0  0
103 51  1  0  0  0  0
104105  1  0  0  0  0
104109  1  0  0  0  0
105106  1  0  0  0  0
105121  1  0  0  0  0
106107  1  0  0  0  0
106122  1  0  0  0  0
107108  1  0  0  0  0
107123  1  0  0  0  0
108109  1  0  0  0  0
108124  1  0  0  0  0
109125  1  0  0  0  0
126127  2  0  0  0  0
126110  1  0  0  0  0
127128  1  0  0  0  0
127135  1  0  0  0  0
127 92  1  0  0  0  0
128129  1  0  0  0  0
128130  2  0  0  0  0
129136  1  0  0  0  0
129137  1  0  0  0  0
129138  1  0  0  0  0
130131  1  0  0  0  0
130139  1  0  0  0  0
131132  1  0  0  0  0
131133  1  0  0  0  0
131134  1  0  0  0  0
132140  1  0  0  0  0
132141  1  0  0  0  0
132142  1  0  0  0  0
133143  1  0  0  0  0
133144  1  0  0  0  0
133145  1  0  0  0  0
134135  1  0  0  0  0
134146  1  0  0  0  0
134147  1  0  0  0  0
135148  1  0  0  0  0
135149  1  0  0  0  0
M  END
