 energy: -194.345129402036 gnorm: 0.000914072781 xtb: 6.7.1 (edcfbbe)
          07072520373D

133143  0     0  0            999 V2000
   -5.5488   -1.1195    6.1337 C   0  0  0  0  0  0  0  0  0  0  0  0
   -4.1592   -1.3742    6.0855 O   0  0  0  0  0  0  0  0  0  0  0  0
   -3.6953   -2.2459    5.1356 C   0  0  0  0  0  3  0  0  0  0  0  0
   -2.3174   -2.4208    5.1097 C   0  0  0  0  0  3  0  0  0  0  0  0
   -1.7171   -3.2878    4.1827 C   0  0  0  0  0  3  0  0  0  0  0  0
   -2.5015   -4.0086    3.2913 C   0  0  0  0  0  3  0  0  0  0  0  0
   -3.8760   -3.8279    3.3306 C   0  0  0  0  0  3  0  0  0  0  0  0
   -4.4800   -2.9502    4.2216 C   0  0  0  0  0  3  0  0  0  0  0  0
   -0.3475   -3.3638    4.1988 O   0  0  0  0  0  0  0  0  0  0  0  0
    0.0941   -2.1326    4.7839 C   0  0  0  0  0  0  0  0  0  0  0  0
    1.4676   -1.8760    5.3414 C   0  0  0  0  0  0  0  0  0  0  0  0
    2.6570   -2.3695    4.7262 O   0  0  0  0  0  0  0  0  0  0  0  0
    3.6869   -1.6097    5.2144 C   0  0  0  0  0  3  0  0  0  0  0  0
    5.0024   -2.0539    5.1736 C   0  0  0  0  0  3  0  0  0  0  0  0
    5.9910   -1.2295    5.6858 C   0  0  0  0  0  3  0  0  0  0  0  0
    5.6935    0.0192    6.2119 C   0  0  0  0  0  3  0  0  0  0  0  0
    4.3739    0.4757    6.2258 C   0  0  0  0  0  3  0  0  0  0  0  0
    3.9829    1.7124    6.6525 O   0  0  0  0  0  0  0  0  0  0  0  0
    4.9899    2.6510    6.9733 C   0  0  0  0  0  0  0  0  0  0  0  0
    3.3613   -0.3530    5.7487 C   0  0  0  0  0  3  0  0  0  0  0  0
    1.5724    0.0084    5.5151 P   0  0  0  0  0  4  0  0  0  0  0  0
    1.7661    0.7149    3.7250 C   0  0  0  0  0  0  0  0  0  0  0  0
    2.2369   -0.3225    2.6976 C   0  0  0  0  0  0  0  0  0  0  0  0
    0.4431    1.3287    3.2512 C   0  0  0  0  0  0  0  0  0  0  0  0
    2.8029    1.8504    3.7645 C   0  0  0  0  0  0  0  0  0  0  0  0
   -1.0443   -1.7595    6.2343 P   0  0  0  0  0  4  0  0  0  0  0  0
   -1.0426   -3.2398    7.4623 C   0  0  0  0  0  0  0  0  0  0  0  0
   -2.1221   -2.7738    8.4539 C   0  0  0  0  0  0  0  0  0  0  0  0
    0.2996   -3.3573    8.1900 C   0  0  0  0  0  0  0  0  0  0  0  0
   -1.4179   -4.6071    6.8816 C   0  0  0  0  0  0  0  0  0  0  0  0
   -0.4395    0.4549    6.7403 Ru  0  0  0  0  0  0  0  0  0  0  0  0
   -5.6980   -0.4152    6.9536 H   0  0  0  0  0  0  0  0  0  0  0  0
   -6.1147   -2.0345    6.3396 H   0  0  0  0  0  0  0  0  0  0  0  0
   -5.9038   -0.6709    5.1996 H   0  0  0  0  0  0  0  0  0  0  0  0
   -2.0392   -4.6846    2.5868 H   0  0  0  0  0  0  0  0  0  0  0  0
   -4.5003   -4.3775    2.6373 H   0  0  0  0  0  0  0  0  0  0  0  0
   -5.5538   -2.8306    4.1985 H   0  0  0  0  0  0  0  0  0  0  0  0
   -0.1375   -1.3539    4.0421 H   0  0  0  0  0  0  0  0  0  0  0  0
    1.5070   -2.2332    6.3810 H   0  0  0  0  0  0  0  0  0  0  0  0
    5.2291   -3.0219    4.7505 H   0  0  0  0  0  0  0  0  0  0  0  0
    7.0208   -1.5636    5.6745 H   0  0  0  0  0  0  0  0  0  0  0  0
    6.4950    0.6307    6.6004 H   0  0  0  0  0  0  0  0  0  0  0  0
    4.4729    3.5914    7.1695 H   0  0  0  0  0  0  0  0  0  0  0  0
    5.6842    2.7878    6.1370 H   0  0  0  0  0  0  0  0  0  0  0  0
    5.5463    2.3516    7.8676 H   0  0  0  0  0  0  0  0  0  0  0  0
    2.2622    0.1499    1.7135 H   0  0  0  0  0  0  0  0  0  0  0  0
    1.5720   -1.1823    2.6410 H   0  0  0  0  0  0  0  0  0  0  0  0
    3.2416   -0.6769    2.9207 H   0  0  0  0  0  0  0  0  0  0  0  0
    0.0892    2.0681    3.9674 H   0  0  0  0  0  0  0  0  0  0  0  0
   -0.3332    0.5756    3.1271 H   0  0  0  0  0  0  0  0  0  0  0  0
    0.5941    1.8212    2.2890 H   0  0  0  0  0  0  0  0  0  0  0  0
    3.8021    1.4695    3.9689 H   0  0  0  0  0  0  0  0  0  0  0  0
    2.5448    2.5950    4.5168 H   0  0  0  0  0  0  0  0  0  0  0  0
    2.8269    2.3460    2.7926 H   0  0  0  0  0  0  0  0  0  0  0  0
   -3.0584   -2.5730    7.9345 H   0  0  0  0  0  0  0  0  0  0  0  0
   -1.7942   -1.8636    8.9591 H   0  0  0  0  0  0  0  0  0  0  0  0
   -2.3009   -3.5486    9.2008 H   0  0  0  0  0  0  0  0  0  0  0  0
    0.6865   -2.3713    8.4409 H   0  0  0  0  0  0  0  0  0  0  0  0
    1.0288   -3.8941    7.5852 H   0  0  0  0  0  0  0  0  0  0  0  0
    0.1611   -3.9149    9.1180 H   0  0  0  0  0  0  0  0  0  0  0  0
   -2.4287   -4.6134    6.4775 H   0  0  0  0  0  0  0  0  0  0  0  0
   -1.3679   -5.3444    7.6851 H   0  0  0  0  0  0  0  0  0  0  0  0
   -0.7239   -4.9123    6.0998 H   0  0  0  0  0  0  0  0  0  0  0  0
    0.1512    0.2075    8.3664 H   0  0  0  0  0  0  0  0  0  0  0  0
   -1.2122    0.6668    5.3708 H   0  0  0  0  0  0  0  0  0  0  0  0
   -2.2862    0.8395    7.6568 N   0  0  0  0  0  4  0  0  0  0  0  0
   -2.6218    2.2386    7.3758 C   0  0  0  0  0  0  0  0  0  0  0  0
   -1.3599    3.0499    7.3289 C   0  0  0  0  0  0  0  0  0  0  0  0
   -1.3315    4.4070    7.5685 C   0  0  0  0  0  0  0  0  0  0  0  0
   -0.2388    5.1542    7.4189 N   0  0  0  0  0  0  0  0  0  0  0  0
    0.8491    4.4936    7.0255 C   0  0  0  0  0  0  0  0  0  0  0  0
    0.8666    3.1351    6.8195 C   0  0  0  0  0  0  0  0  0  0  0  0
   -0.2388    2.3801    6.9663 N   0  0  0  0  0  4  0  0  0  0  0  0
   -2.2075    0.7078    8.6727 H   0  0  0  0  0  0  0  0  0  0  0  0
   -3.0174    0.2167    7.3238 H   0  0  0  0  0  0  0  0  0  0  0  0
   -3.0853    2.2845    6.3829 H   0  0  0  0  0  0  0  0  0  0  0  0
   -3.3229    2.6548    8.1103 H   0  0  0  0  0  0  0  0  0  0  0  0
   -2.2263    4.9314    7.8843 H   0  0  0  0  0  0  0  0  0  0  0  0
    1.7415    5.0923    6.8851 H   0  0  0  0  0  0  0  0  0  0  0  0
    1.7693    2.6071    6.5471 H   0  0  0  0  0  0  0  0  0  0  0  0
   -1.1912    0.4547   10.2773 O   0  0  0  0  0  0  0  0  0  0  0  0
    0.0417    0.4818   10.0664 C   0  0  0  0  0  0  0  0  0  0  0  0
    0.7493    1.8080   10.1793 C   0  0  0  0  0  0  0  0  0  0  0  0
    2.2792    1.7495   10.2683 C   0  0  0  0  0  0  0  0  0  0  0  0
    2.7224    1.5443   11.7165 C   0  0  0  0  0  0  0  0  0  0  0  0
    2.8705    3.0664    9.7762 C   0  0  0  0  0  0  0  0  0  0  0  0
    2.7734    0.5876    9.3975 C   0  0  0  0  0  0  0  0  0  0  0  0
    2.2174   -0.6773    9.9767 C   0  0  0  0  0  3  0  0  0  0  0  0
    3.0469   -1.7072   10.1539 N   0  0  0  0  0  2  0  0  0  0  0  0
    2.5920   -2.7933   10.8027 C   0  0  0  0  0  3  0  0  0  0  0  0
    3.5351   -3.9757   10.9250 C   0  0  0  0  0  0  0  0  0  0  0  0
    3.2326   -4.9623    9.8052 C   0  0  0  0  0  0  0  0  0  0  0  0
    4.9851   -3.5175   10.8663 C   0  0  0  0  0  0  0  0  0  0  0  0
    1.3141   -2.7930   11.3932 C   0  0  0  0  0  3  0  0  0  0  0  0
    0.9120   -3.9803   12.2368 C   0  0  0  0  0  0  0  0  0  0  0  0
    1.0168   -3.7080   13.6075 O   0  0  0  0  0  0  0  0  0  0  0  0
    0.6993   -4.7947   14.4591 C   0  0  0  0  0  0  0  0  0  0  0  0
    0.5465   -5.0890   11.8113 O   0  0  0  0  0  0  0  0  0  0  0  0
    0.4758   -1.7240   11.2334 C   0  0  0  0  0  3  0  0  0  0  0  0
   -0.7700   -1.6062   12.0825 C   0  0  0  0  0  0  0  0  0  0  0  0
   -0.8183   -0.6759   13.0265 C   0  0  0  0  0  0  0  0  0  0  0  0
   -1.9618   -0.5403   13.9907 C   0  0  0  0  0  0  0  0  0  0  0  0
   -3.0538   -1.4531   13.7429 O   0  0  0  0  0  0  0  0  0  0  0  0
   -2.5921   -2.7236   13.2918 C   0  0  0  0  0  0  0  0  0  0  0  0
   -1.8875   -2.5882   11.9414 C   0  0  0  0  0  0  0  0  0  0  0  0
    0.8950   -0.6717   10.4092 C   0  0  0  0  0  3  0  0  0  0  0  0
    0.4570    2.4495    9.3663 H   0  0  0  0  0  0  0  0  0  0  0  0
    0.3565    2.2588   11.0748 H   0  0  0  0  0  0  0  0  0  0  0  0
    2.2555    0.6799   12.1532 H   0  0  0  0  0  0  0  0  0  0  0  0
    3.7879    1.4070   11.7631 H   0  0  0  0  0  0  0  0  0  0  0  0
    2.4641    2.4049   12.3070 H   0  0  0  0  0  0  0  0  0  0  0  0
    3.9353    3.0752    9.9241 H   0  0  0  0  0  0  0  0  0  0  0  0
    2.6635    3.2035    8.7306 H   0  0  0  0  0  0  0  0  0  0  0  0
    2.4454    3.8914   10.3191 H   0  0  0  0  0  0  0  0  0  0  0  0
    2.4117    0.7151    8.3920 H   0  0  0  0  0  0  0  0  0  0  0  0
    3.8473    0.5249    9.3820 H   0  0  0  0  0  0  0  0  0  0  0  0
    3.3496   -4.4580   11.8707 H   0  0  0  0  0  0  0  0  0  0  0  0
    3.3464   -4.4811    8.8505 H   0  0  0  0  0  0  0  0  0  0  0  0
    3.9111   -5.7948    9.8568 H   0  0  0  0  0  0  0  0  0  0  0  0
    2.2273   -5.3331    9.8945 H   0  0  0  0  0  0  0  0  0  0  0  0
    5.1904   -2.8241   11.6619 H   0  0  0  0  0  0  0  0  0  0  0  0
    5.6426   -4.3630   10.9614 H   0  0  0  0  0  0  0  0  0  0  0  0
    5.1722   -3.0248    9.9296 H   0  0  0  0  0  0  0  0  0  0  0  0
   -0.3081   -5.1296   14.2843 H   0  0  0  0  0  0  0  0  0  0  0  0
    1.3733   -5.6148   14.2852 H   0  0  0  0  0  0  0  0  0  0  0  0
    0.8079   -4.4245   15.4628 H   0  0  0  0  0  0  0  0  0  0  0  0
   -0.0215    0.0271   13.1708 H   0  0  0  0  0  0  0  0  0  0  0  0
   -2.3963    0.4420   13.9199 H   0  0  0  0  0  0  0  0  0  0  0  0
   -1.5962   -0.6928   14.9927 H   0  0  0  0  0  0  0  0  0  0  0  0
   -1.9203   -3.1467   14.0197 H   0  0  0  0  0  0  0  0  0  0  0  0
   -3.4751   -3.3343   13.2125 H   0  0  0  0  0  0  0  0  0  0  0  0
   -1.5284   -3.5465   11.6088 H   0  0  0  0  0  0  0  0  0  0  0  0
   -2.5928   -2.2083   11.2224 H   0  0  0  0  0  0  0  0  0  0  0  0
  1  2  1  0  0  0  0
  1 32  1  0  0  0  0
  1 33  1  0  0  0  0
  1 34  1  0  0  0  0
  3  2  1  0  0  0  0
  3  4  1  0  0  0  0
  3  8  1  0  0  0  0
  4  5  1  0  0  0  0
  4 26  1  0  0  0  0
  5  6  1  0  0  0  0
  5  9  1  0  0  0  0
  6  7  1  0  0  0  0
  6 35  1  0  0  0  0
  7  8  1  0  0  0  0
  7 36  1  0  0  0  0
  8 37  1  0  0  0  0
  9 10  1  0  0  0  0
 10 11  1  0  0  0  0
 10 26  1  0  0  0  0
 10 38  1  0  0  0  0
 11 12  1  0  0  0  0
 11 21  1  0  0  0  0
 11 39  1  0  0  0  0
 12 13  1  0  0  0  0
 13 14  1  0  0  0  0
 13 20  1  0  0  0  0
 14 15  1  0  0  0  0
 14 40  1  0  0  0  0
 15 16  1  0  0  0  0
 15 41  1  0  0  0  0
 16 17  1  0  0  0  0
 16 42  1  0  0  0  0
 17 18  1  0  0  0  0
 17 20  1  0  0  0  0
 18 19  1  0  0  0  0
 19 43  1  0  0  0  0
 19 44  1  0  0  0  0
 19 45  1  0  0  0  0
 20 21  1  0  0  0  0
 21 22  1  0  0  0  0
 21 31  1  0  0  0  0
 22 23  1  0  0  0  0
 22 24  1  0  0  0  0
 22 25  1  0  0  0  0
 23 46  1  0  0  0  0
 23 47  1  0  0  0  0
 23 48  1  0  0  0  0
 24 49  1  0  0  0  0
 24 50  1  0  0  0  0
 24 51  1  0  0  0  0
 25 52  1  0  0  0  0
 25 53  1  0  0  0  0
 25 54  1  0  0  0  0
 26 27  1  0  0  0  0
 26 31  1  0  0  0  0
 27 28  1  0  0  0  0
 27 29  1  0  0  0  0
 27 30  1  0  0  0  0
 28 55  1  0  0  0  0
 28 56  1  0  0  0  0
 28 57  1  0  0  0  0
 29 58  1  0  0  0  0
 29 59  1  0  0  0  0
 29 60  1  0  0  0  0
 30 61  1  0  0  0  0
 30 62  1  0  0  0  0
 30 63  1  0  0  0  0
 31 66  1  0  0  0  0
 64 31  1  0  0  0  0
 65 31  1  0  0  0  0
 66 67  1  0  0  0  0
 66 74  1  0  0  0  0
 66 75  1  0  0  0  0
 67 68  1  0  0  0  0
 67 76  1  0  0  0  0
 67 77  1  0  0  0  0
 68 69  2  0  0  0  0
 68 73  1  0  0  0  0
 69 70  1  0  0  0  0
 69 78  1  0  0  0  0
 70 71  2  0  0  0  0
 71 72  1  0  0  0  0
 71 79  1  0  0  0  0
 72 73  2  0  0  0  0
 72 80  1  0  0  0  0
 73 31  1  0  0  0  0
 81 82  2  0  0  0  0
 81 74  1  0  0  0  0
 82 83  1  0  0  0  0
 82106  1  0  0  0  0
 82 64  1  0  0  0  0
 83 84  1  0  0  0  0
 83107  1  0  0  0  0
 83108  1  0  0  0  0
 84 85  1  0  0  0  0
 84 86  1  0  0  0  0
 84 87  1  0  0  0  0
 85109  1  0  0  0  0
 85110  1  0  0  0  0
 85111  1  0  0  0  0
 86112  1  0  0  0  0
 86113  1  0  0  0  0
 86114  1  0  0  0  0
 87 88  1  0  0  0  0
 87115  1  0  0  0  0
 87116  1  0  0  0  0
 88 89  1  0  0  0  0
 88106  1  0  0  0  0
 89 90  1  0  0  0  0
 90 91  1  0  0  0  0
 90 94  1  0  0  0  0
 91 92  1  0  0  0  0
 91 93  1  0  0  0  0
 91117  1  0  0  0  0
 92118  1  0  0  0  0
 92119  1  0  0  0  0
 92120  1  0  0  0  0
 93121  1  0  0  0  0
 93122  1  0  0  0  0
 93123  1  0  0  0  0
 94 95  1  0  0  0  0
 94 99  1  0  0  0  0
 95 96  1  0  0  0  0
 95 98  2  0  0  0  0
 96 97  1  0  0  0  0
 97124  1  0  0  0  0
 97125  1  0  0  0  0
 97126  1  0  0  0  0
 99100  1  0  0  0  0
 99106  1  0  0  0  0
100101  2  0  0  0  0
100105  1  0  0  0  0
101102  1  0  0  0  0
101127  1  0  0  0  0
102103  1  0  0  0  0
102128  1  0  0  0  0
102129  1  0  0  0  0
103104  1  0  0  0  0
104105  1  0  0  0  0
104130  1  0  0  0  0
104131  1  0  0  0  0
105132  1  0  0  0  0
105133  1  0  0  0  0
M  END
