 energy: -218.856404679622 gnorm: 0.000785746847 xtb: 6.7.1 (edcfbbe)
          07072520113D

151162  0     0  0            999 V2000
    4.5514   -4.8239    4.0570 C   0  0  0  0  0  0  0  0  0  0  0  0
    3.7477   -3.8472    3.4328 O   0  0  0  0  0  0  0  0  0  0  0  0
    2.4351   -3.7488    3.8027 C   0  0  0  0  0  3  0  0  0  0  0  0
    1.6600   -2.8076    3.0965 C   0  0  0  0  0  3  0  0  0  0  0  0
    2.2394   -2.2179    1.8570 C   0  0  0  0  0  3  0  0  0  0  0  0
    2.5591   -3.1669    0.8652 C   0  0  0  0  0  3  0  0  0  0  0  0
    2.2629   -4.4668    1.1658 O   0  0  0  0  0  0  0  0  0  0  0  0
    2.5783   -5.4663    0.2220 C   0  0  0  0  0  0  0  0  0  0  0  0
    3.1089   -2.7695   -0.3490 C   0  0  0  0  0  3  0  0  0  0  0  0
    3.3330   -1.4239   -0.5873 C   0  0  0  0  0  3  0  0  0  0  0  0
    3.0179   -0.4846    0.3761 C   0  0  0  0  0  3  0  0  0  0  0  0
    2.4863   -0.8638    1.6070 C   0  0  0  0  0  3  0  0  0  0  0  0
    1.9688    0.4813    2.7505 P   0  0  0  0  0  4  0  0  0  0  0  0
    2.9283    1.9037    2.0709 C   0  0  0  0  0  3  0  0  0  0  0  0
    4.2730    2.1284    2.3529 C   0  0  0  0  0  3  0  0  0  0  0  0
    4.9265    3.2235    1.8099 C   0  0  0  0  0  3  0  0  0  0  0  0
    4.2533    4.0990    0.9726 C   0  0  0  0  0  3  0  0  0  0  0  0
    2.9175    3.8764    0.6747 C   0  0  0  0  0  3  0  0  0  0  0  0
    2.2582    2.7909    1.2265 C   0  0  0  0  0  3  0  0  0  0  0  0
    3.0365    0.1892    4.2250 C   0  0  0  0  0  3  0  0  0  0  0  0
    3.8980   -0.8898    4.4060 C   0  0  0  0  0  3  0  0  0  0  0  0
    4.6095   -1.0138    5.5876 C   0  0  0  0  0  3  0  0  0  0  0  0
    4.4890   -0.0606    6.5882 C   0  0  0  0  0  3  0  0  0  0  0  0
    3.6722    1.0423    6.3923 C   0  0  0  0  0  3  0  0  0  0  0  0
    2.9515    1.1612    5.2152 C   0  0  0  0  0  3  0  0  0  0  0  0
    0.3140   -2.6481    3.4390 C   0  0  0  0  0  3  0  0  0  0  0  0
   -0.6501   -1.3875    2.5066 P   0  0  0  0  0  4  0  0  0  0  0  0
   -0.4680   -2.1564    0.8406 C   0  0  0  0  0  3  0  0  0  0  0  0
   -0.1963   -1.3761   -0.2768 C   0  0  0  0  0  3  0  0  0  0  0  0
   -0.0714   -1.9649   -1.5248 C   0  0  0  0  0  3  0  0  0  0  0  0
   -0.2347   -3.3341   -1.6654 C   0  0  0  0  0  3  0  0  0  0  0  0
   -0.5216   -4.1157   -0.5555 C   0  0  0  0  0  3  0  0  0  0  0  0
   -0.6307   -3.5332    0.6955 C   0  0  0  0  0  3  0  0  0  0  0  0
   -2.4048   -1.8358    2.8563 C   0  0  0  0  0  3  0  0  0  0  0  0
   -2.8811   -1.5571    4.1378 C   0  0  0  0  0  3  0  0  0  0  0  0
   -4.2150   -1.7521    4.4527 C   0  0  0  0  0  3  0  0  0  0  0  0
   -5.0969   -2.2080    3.4842 C   0  0  0  0  0  3  0  0  0  0  0  0
   -4.6377   -2.4558    2.2003 C   0  0  0  0  0  3  0  0  0  0  0  0
   -3.3014   -2.2677    1.8829 C   0  0  0  0  0  3  0  0  0  0  0  0
   -0.2499   -3.4221    4.4498 C   0  0  0  0  0  3  0  0  0  0  0  0
    0.5141   -4.3687    5.1055 C   0  0  0  0  0  3  0  0  0  0  0  0
    1.8564   -4.5245    4.8015 C   0  0  0  0  0  3  0  0  0  0  0  0
   -0.2916    0.8340    2.9932 Ru  0  0  0  0  0  0  0  0  0  0  0  0
    4.1725   -5.8347    3.8686 H   0  0  0  0  0  0  0  0  0  0  0  0
    4.6220   -4.6594    5.1384 H   0  0  0  0  0  0  0  0  0  0  0  0
    5.5406   -4.7188    3.6080 H   0  0  0  0  0  0  0  0  0  0  0  0
    2.0364   -5.3151   -0.7187 H   0  0  0  0  0  0  0  0  0  0  0  0
    2.2579   -6.4054    0.6765 H   0  0  0  0  0  0  0  0  0  0  0  0
    3.6555   -5.5078    0.0244 H   0  0  0  0  0  0  0  0  0  0  0  0
    3.3516   -3.4929   -1.1142 H   0  0  0  0  0  0  0  0  0  0  0  0
    3.7524   -1.1098   -1.5351 H   0  0  0  0  0  0  0  0  0  0  0  0
    3.1877    0.5621    0.1649 H   0  0  0  0  0  0  0  0  0  0  0  0
    4.8138    1.4423    2.9920 H   0  0  0  0  0  0  0  0  0  0  0  0
    5.9726    3.3898    2.0370 H   0  0  0  0  0  0  0  0  0  0  0  0
    4.7733    4.9485    0.5471 H   0  0  0  0  0  0  0  0  0  0  0  0
    2.3852    4.5439    0.0082 H   0  0  0  0  0  0  0  0  0  0  0  0
    1.2204    2.5931    0.9888 H   0  0  0  0  0  0  0  0  0  0  0  0
    4.0257   -1.6191    3.6164 H   0  0  0  0  0  0  0  0  0  0  0  0
    5.2745   -1.8579    5.7244 H   0  0  0  0  0  0  0  0  0  0  0  0
    5.0414   -0.1683    7.5137 H   0  0  0  0  0  0  0  0  0  0  0  0
    3.6007    1.8051    7.1583 H   0  0  0  0  0  0  0  0  0  0  0  0
    2.3163    2.0203    5.0354 H   0  0  0  0  0  0  0  0  0  0  0  0
   -0.0760   -0.3085   -0.1444 H   0  0  0  0  0  0  0  0  0  0  0  0
    0.1522   -1.3544   -2.3912 H   0  0  0  0  0  0  0  0  0  0  0  0
   -0.1420   -3.7943   -2.6415 H   0  0  0  0  0  0  0  0  0  0  0  0
   -0.6609   -5.1845   -0.6652 H   0  0  0  0  0  0  0  0  0  0  0  0
   -0.8410   -4.1430    1.5660 H   0  0  0  0  0  0  0  0  0  0  0  0
   -2.2020   -1.1540    4.8786 H   0  0  0  0  0  0  0  0  0  0  0  0
   -4.5681   -1.5314    5.4528 H   0  0  0  0  0  0  0  0  0  0  0  0
   -6.1421   -2.3569    3.7251 H   0  0  0  0  0  0  0  0  0  0  0  0
   -5.3264   -2.7942    1.4357 H   0  0  0  0  0  0  0  0  0  0  0  0
   -2.9600   -2.4526    0.8727 H   0  0  0  0  0  0  0  0  0  0  0  0
   -1.2974   -3.3131    4.6945 H   0  0  0  0  0  0  0  0  0  0  0  0
    0.0651   -5.0057    5.8574 H   0  0  0  0  0  0  0  0  0  0  0  0
    2.4323   -5.2678    5.3341 H   0  0  0  0  0  0  0  0  0  0  0  0
   -0.1360    0.6657    4.7269 H   0  0  0  0  0  0  0  0  0  0  0  0
   -0.4526    1.1906    1.4482 H   0  0  0  0  0  0  0  0  0  0  0  0
   -3.7647    6.5956    8.4011 C   0  0  0  0  0  0  0  0  0  0  0  0
   -3.5646    7.0626    7.0826 O   0  0  0  0  0  0  0  0  0  0  0  0
   -3.1100    6.1806    6.1476 C   0  0  0  0  0  3  0  0  0  0  0  0
   -2.9379    6.6847    4.8567 C   0  0  0  0  0  3  0  0  0  0  0  0
   -2.4606    5.8807    3.8416 C   0  0  0  0  0  3  0  0  0  0  0  0
   -2.1303    4.5437    4.0708 C   0  0  0  0  0  3  0  0  0  0  0  0
   -1.5874    3.6485    2.9659 C   0  0  0  0  0  0  0  0  0  0  0  0
   -0.3700    2.9204    3.4273 N   0  0  0  0  0  4  0  0  0  0  0  0
   -1.1519    4.5229    1.7930 C   0  0  0  0  0  3  0  0  0  0  0  0
   -0.0658    5.3770    1.9886 C   0  0  0  0  0  3  0  0  0  0  0  0
    0.4068    6.2097    0.9910 C   0  0  0  0  0  3  0  0  0  0  0  0
   -0.2082    6.2112   -0.2597 C   0  0  0  0  0  3  0  0  0  0  0  0
    0.1737    6.9741   -1.3220 O   0  0  0  0  0  0  0  0  0  0  0  0
    1.2926    7.8238   -1.1716 C   0  0  0  0  0  0  0  0  0  0  0  0
   -1.3128    5.3830   -0.4588 C   0  0  0  0  0  3  0  0  0  0  0  0
   -1.7788    4.5621    0.5514 C   0  0  0  0  0  3  0  0  0  0  0  0
   -2.6257    2.5659    2.5610 C   0  0  0  0  0  0  0  0  0  0  0  0
   -2.3342    1.3321    3.3011 N   0  0  0  0  0  4  0  0  0  0  0  0
   -4.1169    2.9783    2.6102 C   0  0  0  0  0  0  0  0  0  0  0  0
   -4.8610    2.3258    1.4387 C   0  0  0  0  0  0  0  0  0  0  0  0
   -4.8381    2.5896    3.9050 C   0  0  0  0  0  0  0  0  0  0  0  0
   -2.3541    4.0400    5.3473 C   0  0  0  0  0  3  0  0  0  0  0  0
   -2.8240    4.8383    6.3785 C   0  0  0  0  0  3  0  0  0  0  0  0
   -2.8312    6.2277    8.8415 H   0  0  0  0  0  0  0  0  0  0  0  0
   -4.5222    5.8048    8.4353 H   0  0  0  0  0  0  0  0  0  0  0  0
   -4.1166    7.4587    8.9681 H   0  0  0  0  0  0  0  0  0  0  0  0
   -3.1878    7.7203    4.6708 H   0  0  0  0  0  0  0  0  0  0  0  0
   -2.3495    6.3079    2.8534 H   0  0  0  0  0  0  0  0  0  0  0  0
    0.4557    3.3648    3.0329 H   0  0  0  0  0  0  0  0  0  0  0  0
   -0.3010    2.9996    4.4376 H   0  0  0  0  0  0  0  0  0  0  0  0
    0.4200    5.4290    2.9558 H   0  0  0  0  0  0  0  0  0  0  0  0
    1.2498    6.8519    1.2035 H   0  0  0  0  0  0  0  0  0  0  0  0
    2.1987    7.2559   -0.9326 H   0  0  0  0  0  0  0  0  0  0  0  0
    1.1205    8.5809   -0.3983 H   0  0  0  0  0  0  0  0  0  0  0  0
    1.4189    8.3159   -2.1370 H   0  0  0  0  0  0  0  0  0  0  0  0
   -1.7999    5.4002   -1.4244 H   0  0  0  0  0  0  0  0  0  0  0  0
   -2.6510    3.9573    0.3494 H   0  0  0  0  0  0  0  0  0  0  0  0
   -2.3946    2.3046    1.5213 H   0  0  0  0  0  0  0  0  0  0  0  0
   -2.5052    1.4048    4.3123 H   0  0  0  0  0  0  0  0  0  0  0  0
   -2.9577    0.6059    2.9617 H   0  0  0  0  0  0  0  0  0  0  0  0
   -4.1739    4.0690    2.4973 H   0  0  0  0  0  0  0  0  0  0  0  0
   -5.9154    2.6014    1.4597 H   0  0  0  0  0  0  0  0  0  0  0  0
   -4.7932    1.2389    1.5000 H   0  0  0  0  0  0  0  0  0  0  0  0
   -4.4516    2.6373    0.4779 H   0  0  0  0  0  0  0  0  0  0  0  0
   -5.8670    2.9473    3.8608 H   0  0  0  0  0  0  0  0  0  0  0  0
   -4.3693    3.0335    4.7806 H   0  0  0  0  0  0  0  0  0  0  0  0
   -4.8669    1.5071    4.0317 H   0  0  0  0  0  0  0  0  0  0  0  0
   -2.1991    2.9938    5.5699 H   0  0  0  0  0  0  0  0  0  0  0  0
   -2.9734    4.3890    7.3502 H   0  0  0  0  0  0  0  0  0  0  0  0
   -0.0561    2.0007    6.8959 C   0  0  0  0  0  0  0  0  0  0  0  0
   -0.8139    0.8242    6.3007 C   0  0  0  0  0  0  0  0  0  0  0  0
   -0.1294   -0.4540    6.7266 C   0  0  0  0  0  0  0  0  0  0  0  0
   -0.7756   -1.5200    7.2424 C   0  0  0  0  0  0  0  0  0  0  0  0
   -0.0788   -2.7433    7.7659 C   0  0  0  0  0  0  0  0  0  0  0  0
    1.2554   -2.9399    7.6827 C   0  0  0  0  0  0  0  0  0  0  0  0
    2.0068   -4.1582    8.1490 C   0  0  0  0  0  3  0  0  0  0  0  0
    1.3801   -5.2316    8.7663 C   0  0  0  0  0  3  0  0  0  0  0  0
    2.1412   -6.3508    9.1451 C   0  0  0  0  0  3  0  0  0  0  0  0
    3.4627   -6.3793    8.9104 C   0  0  0  0  0  3  0  0  0  0  0  0
    4.0798   -5.3119    8.3032 C   0  0  0  0  0  3  0  0  0  0  0  0
    3.3393   -4.2115    7.9313 C   0  0  0  0  0  3  0  0  0  0  0  0
   -2.0576    0.8894    6.1062 O   0  0  0  0  0  0  0  0  0  0  0  0
   -0.3184    2.0167    7.9389 H   0  0  0  0  0  0  0  0  0  0  0  0
   -0.3260    2.9549    6.4812 H   0  0  0  0  0  0  0  0  0  0  0  0
    1.0059    1.8567    6.8162 H   0  0  0  0  0  0  0  0  0  0  0  0
    0.9395   -0.4353    6.6524 H   0  0  0  0  0  0  0  0  0  0  0  0
   -1.8446   -1.5110    7.3237 H   0  0  0  0  0  0  0  0  0  0  0  0
   -0.7232   -3.4713    8.2168 H   0  0  0  0  0  0  0  0  0  0  0  0
    1.8767   -2.2019    7.2156 H   0  0  0  0  0  0  0  0  0  0  0  0
    0.3258   -5.2220    8.9595 H   0  0  0  0  0  0  0  0  0  0  0  0
    1.6447   -7.1745    9.6205 H   0  0  0  0  0  0  0  0  0  0  0  0
    4.0470   -7.2330    9.1956 H   0  0  0  0  0  0  0  0  0  0  0  0
    5.1365   -5.3348    8.1190 H   0  0  0  0  0  0  0  0  0  0  0  0
    3.8306   -3.3837    7.4575 H   0  0  0  0  0  0  0  0  0  0  0  0
  1  2  1  0  0  0  0
  1 44  1  0  0  0  0
  1 45  1  0  0  0  0
  1 46  1  0  0  0  0
  3  2  1  0  0  0  0
  3  4  1  0  0  0  0
  3 42  1  0  0  0  0
  4  5  1  0  0  0  0
  4 26  1  0  0  0  0
  5  6  1  0  0  0  0
  5 12  1  0  0  0  0
  6  7  1  0  0  0  0
  6  9  1  0  0  0  0
  7  8  1  0  0  0  0
  8 47  1  0  0  0  0
  8 48  1  0  0  0  0
  8 49  1  0  0  0  0
  9 10  1  0  0  0  0
  9 50  1  0  0  0  0
 10 11  1  0  0  0  0
 10 51  1  0  0  0  0
 11 12  1  0  0  0  0
 11 52  1  0  0  0  0
 12 13  1  0  0  0  0
 13 14  1  0  0  0  0
 13 20  1  0  0  0  0
 13 43  1  0  0  0  0
 14 15  1  0  0  0  0
 14 19  1  0  0  0  0
 15 16  1  0  0  0  0
 15 53  1  0  0  0  0
 16 17  1  0  0  0  0
 16 54  1  0  0  0  0
 17 18  1  0  0  0  0
 17 55  1  0  0  0  0
 18 19  1  0  0  0  0
 18 56  1  0  0  0  0
 19 57  1  0  0  0  0
 20 21  1  0  0  0  0
 20 25  1  0  0  0  0
 21 22  1  0  0  0  0
 21 58  1  0  0  0  0
 22 23  1  0  0  0  0
 22 59  1  0  0  0  0
 23 24  1  0  0  0  0
 23 60  1  0  0  0  0
 24 25  1  0  0  0  0
 24 61  1  0  0  0  0
 25 62  1  0  0  0  0
 26 27  1  0  0  0  0
 26 40  1  0  0  0  0
 27 28  1  0  0  0  0
 27 34  1  0  0  0  0
 27 43  1  0  0  0  0
 28 29  1  0  0  0  0
 28 33  1  0  0  0  0
 29 30  1  0  0  0  0
 29 63  1  0  0  0  0
 30 31  1  0  0  0  0
 30 64  1  0  0  0  0
 31 32  1  0  0  0  0
 31 65  1  0  0  0  0
 32 33  1  0  0  0  0
 32 66  1  0  0  0  0
 33 67  1  0  0  0  0
 34 35  1  0  0  0  0
 34 39  1  0  0  0  0
 35 36  1  0  0  0  0
 35 68  1  0  0  0  0
 36 37  1  0  0  0  0
 36 69  1  0  0  0  0
 37 38  1  0  0  0  0
 37 70  1  0  0  0  0
 38 39  1  0  0  0  0
 38 71  1  0  0  0  0
 39 72  1  0  0  0  0
 40 41  1  0  0  0  0
 40 73  1  0  0  0  0
 41 42  1  0  0  0  0
 41 74  1  0  0  0  0
 42 75  1  0  0  0  0
 43 95  1  0  0  0  0
 76 43  1  0  0  0  0
 77 43  1  0  0  0  0
 78 79  1  0  0  0  0
 78101  1  0  0  0  0
 78102  1  0  0  0  0
 78103  1  0  0  0  0
 79 80  1  0  0  0  0
 80 81  1  0  0  0  0
 80100  1  0  0  0  0
 81 82  1  0  0  0  0
 81104  1  0  0  0  0
 82 83  1  0  0  0  0
 82105  1  0  0  0  0
 83 84  1  0  0  0  0
 83 99  1  0  0  0  0
 84 85  1  0  0  0  0
 84 86  1  0  0  0  0
 84 94  1  0  0  0  0
 85106  1  0  0  0  0
 85107  1  0  0  0  0
 85 43  1  0  0  0  0
 86 87  1  0  0  0  0
 86 93  1  0  0  0  0
 87 88  1  0  0  0  0
 87108  1  0  0  0  0
 88 89  1  0  0  0  0
 88109  1  0  0  0  0
 89 90  1  0  0  0  0
 89 92  1  0  0  0  0
 90 91  1  0  0  0  0
 91110  1  0  0  0  0
 91111  1  0  0  0  0
 91112  1  0  0  0  0
 92 93  1  0  0  0  0
 92113  1  0  0  0  0
 93114  1  0  0  0  0
 94 95  1  0  0  0  0
 94 96  1  0  0  0  0
 94115  1  0  0  0  0
 95116  1  0  0  0  0
 95117  1  0  0  0  0
 96 97  1  0  0  0  0
 96 98  1  0  0  0  0
 96118  1  0  0  0  0
 97119  1  0  0  0  0
 97120  1  0  0  0  0
 97121  1  0  0  0  0
 98122  1  0  0  0  0
 98123  1  0  0  0  0
 98124  1  0  0  0  0
 99100  1  0  0  0  0
 99125  1  0  0  0  0
100126  1  0  0  0  0
127128  1  0  0  0  0
127140  1  0  0  0  0
127141  1  0  0  0  0
127142  1  0  0  0  0
128129  1  0  0  0  0
128139  2  0  0  0  0
128 76  1  0  0  0  0
129130  2  0  0  0  0
129143  1  0  0  0  0
130131  1  0  0  0  0
130144  1  0  0  0  0
131132  2  0  0  0  0
131145  1  0  0  0  0
132133  1  0  0  0  0
132146  1  0  0  0  0
133134  1  0  0  0  0
133138  1  0  0  0  0
134135  1  0  0  0  0
134147  1  0  0  0  0
135136  1  0  0  0  0
135148  1  0  0  0  0
136137  1  0  0  0  0
136149  1  0  0  0  0
137138  1  0  0  0  0
137150  1  0  0  0  0
138151  1  0  0  0  0
139116  1  0  0  0  0
M  END
