 energy: -283.269958790383 gnorm: 0.000884071939 xtb: 6.7.1 (edcfbbe)
          07072520333D

200214  0     0  0            999 V2000
    3.7756    5.0934    2.6248 C   0  0  0  0  0  3  0  0  0  0  0  0
    4.3831    3.9825    3.1987 C   0  0  0  0  0  3  0  0  0  0  0  0
    3.6777    2.7875    3.2856 C   0  0  0  0  0  3  0  0  0  0  0  0
    2.3756    2.7053    2.8056 C   0  0  0  0  0  3  0  0  0  0  0  0
    1.3069    1.2047    2.7035 P   0  0  0  0  0  4  0  0  0  0  0  0
    2.0485    0.6579    1.1005 C   0  0  0  0  0  3  0  0  0  0  0  0
    1.2460    0.4824   -0.0189 C   0  0  0  0  0  3  0  0  0  0  0  0
    1.7935    0.0958   -1.2346 C   0  0  0  0  0  3  0  0  0  0  0  0
    3.1743   -0.0382   -1.3337 C   0  0  0  0  0  3  0  0  0  0  0  0
    4.0001    0.1871   -0.2388 C   0  0  0  0  0  3  0  0  0  0  0  0
    3.4250    0.5006    0.9862 C   0  0  0  0  0  3  0  0  0  0  0  0
    2.0875   -0.0228    3.8225 C   0  0  0  0  0  3  0  0  0  0  0  0
    2.0138   -1.3945    3.4971 C   0  0  0  0  0  3  0  0  0  0  0  0
    1.5830   -1.9607    2.1966 C   0  0  0  0  0  3  0  0  0  0  0  0
    0.2569   -1.9331    1.7052 C   0  0  0  0  0  3  0  0  0  0  0  0
   -1.0027   -0.9994    2.6771 P   0  0  0  0  0  4  0  0  0  0  0  0
   -1.3416   -2.3113    3.9373 C   0  0  0  0  0  3  0  0  0  0  0  0
   -2.1747   -1.9809    5.0008 C   0  0  0  0  0  3  0  0  0  0  0  0
   -2.5316   -2.9092    5.9699 C   0  0  0  0  0  3  0  0  0  0  0  0
   -2.0455   -4.2071    5.8518 C   0  0  0  0  0  3  0  0  0  0  0  0
   -1.2292   -4.5711    4.7871 C   0  0  0  0  0  3  0  0  0  0  0  0
   -0.8729   -3.6174    3.8416 C   0  0  0  0  0  3  0  0  0  0  0  0
   -2.5095   -1.2723    1.6484 C   0  0  0  0  0  3  0  0  0  0  0  0
   -2.4797   -0.8931    0.3079 C   0  0  0  0  0  3  0  0  0  0  0  0
   -3.6054   -0.9890   -0.4987 C   0  0  0  0  0  3  0  0  0  0  0  0
   -4.8070   -1.3944    0.0708 C   0  0  0  0  0  3  0  0  0  0  0  0
   -4.8789   -1.7286    1.4180 C   0  0  0  0  0  3  0  0  0  0  0  0
   -3.7244   -1.6853    2.1901 C   0  0  0  0  0  3  0  0  0  0  0  0
   -0.0738   -2.6722    0.5755 C   0  0  0  0  0  3  0  0  0  0  0  0
    0.8576   -3.4283   -0.1369 C   0  0  0  0  0  3  0  0  0  0  0  0
    2.1470   -3.4348    0.3370 C   0  0  0  0  0  3  0  0  0  0  0  0
    2.4970   -2.7199    1.4883 C   0  0  0  0  0  3  0  0  0  0  0  0
    2.4640   -2.2819    4.4598 C   0  0  0  0  0  3  0  0  0  0  0  0
    2.9281   -1.8592    5.7103 C   0  0  0  0  0  3  0  0  0  0  0  0
    2.9934   -0.5251    6.0360 C   0  0  0  0  0  3  0  0  0  0  0  0
    2.5625    0.3783    5.0656 C   0  0  0  0  0  3  0  0  0  0  0  0
    1.7947    3.8253    2.2187 C   0  0  0  0  0  3  0  0  0  0  0  0
    2.4797    5.0295    2.1263 C   0  0  0  0  0  3  0  0  0  0  0  0
   -0.9576    1.2722    3.1006 Ru  0  0  0  0  0  0  0  0  0  0  0  0
    5.4978    0.1566   -0.3708 C   0  0  0  0  0  0  0  0  0  0  0  0
    0.8993   -0.1746   -2.4119 C   0  0  0  0  0  0  0  0  0  0  0  0
    5.7892    4.0540    3.7252 C   0  0  0  0  0  0  0  0  0  0  0  0
    1.8255    6.2424    1.5252 C   0  0  0  0  0  0  0  0  0  0  0  0
   -3.5083   -0.6836   -1.9671 C   0  0  0  0  0  0  0  0  0  0  0  0
   -6.1960   -2.1150    2.0321 C   0  0  0  0  0  0  0  0  0  0  0  0
   -3.4050   -2.5064    7.1249 C   0  0  0  0  0  0  0  0  0  0  0  0
   -0.7761   -5.9952    4.6236 C   0  0  0  0  0  0  0  0  0  0  0  0
    3.8248   -2.9225    1.7567 O   0  0  0  0  0  0  0  0  0  0  0  0
    4.2814   -3.9123    0.8297 C   0  0  0  0  0  0  0  0  0  0  0  0
    3.2334   -4.1192   -0.1281 O   0  0  0  0  0  0  0  0  0  0  0  0
    5.5305   -3.4182    0.1040 C   0  0  0  0  0  0  0  0  0  0  0  0
    4.5345   -5.2251    1.5764 C   0  0  0  0  0  0  0  0  0  0  0  0
    3.2646   -2.9499    6.4652 O   0  0  0  0  0  0  0  0  0  0  0  0
    3.1311   -4.0932    5.6097 C   0  0  0  0  0  0  0  0  0  0  0  0
    2.5127   -3.6510    4.3973 O   0  0  0  0  0  0  0  0  0  0  0  0
    2.2414   -5.1308    6.2940 C   0  0  0  0  0  0  0  0  0  0  0  0
    4.5254   -4.6473    5.3056 C   0  0  0  0  0  0  0  0  0  0  0  0
    4.3229    6.0265    2.5626 H   0  0  0  0  0  0  0  0  0  0  0  0
    4.1557    1.9292    3.7397 H   0  0  0  0  0  0  0  0  0  0  0  0
    0.1831    0.6517    0.0881 H   0  0  0  0  0  0  0  0  0  0  0  0
    3.6150   -0.3086   -2.2858 H   0  0  0  0  0  0  0  0  0  0  0  0
    4.0598    0.6358    1.8528 H   0  0  0  0  0  0  0  0  0  0  0  0
   -2.5614   -0.9723    5.0742 H   0  0  0  0  0  0  0  0  0  0  0  0
   -2.3166   -4.9470    6.5955 H   0  0  0  0  0  0  0  0  0  0  0  0
   -0.2315   -3.9063    3.0185 H   0  0  0  0  0  0  0  0  0  0  0  0
   -1.5550   -0.5207   -0.1127 H   0  0  0  0  0  0  0  0  0  0  0  0
   -5.7006   -1.4469   -0.5394 H   0  0  0  0  0  0  0  0  0  0  0  0
   -3.7784   -2.0033    3.2237 H   0  0  0  0  0  0  0  0  0  0  0  0
   -1.1009   -2.7051    0.2405 H   0  0  0  0  0  0  0  0  0  0  0  0
    0.5742   -4.0035   -1.0063 H   0  0  0  0  0  0  0  0  0  0  0  0
    3.3567   -0.1936    6.9978 H   0  0  0  0  0  0  0  0  0  0  0  0
    2.5854    1.4355    5.2932 H   0  0  0  0  0  0  0  0  0  0  0  0
    0.7919    3.7263    1.8199 H   0  0  0  0  0  0  0  0  0  0  0  0
    5.8079   -0.3377   -1.2910 H   0  0  0  0  0  0  0  0  0  0  0  0
    5.9523   -0.3479    0.4820 H   0  0  0  0  0  0  0  0  0  0  0  0
    5.8786    1.1801   -0.3936 H   0  0  0  0  0  0  0  0  0  0  0  0
    0.4053   -1.1397   -2.2821 H   0  0  0  0  0  0  0  0  0  0  0  0
    1.4681   -0.2002   -3.3419 H   0  0  0  0  0  0  0  0  0  0  0  0
    0.1281    0.5918   -2.4897 H   0  0  0  0  0  0  0  0  0  0  0  0
    6.1583    5.0795    3.7212 H   0  0  0  0  0  0  0  0  0  0  0  0
    6.4536    3.4457    3.1081 H   0  0  0  0  0  0  0  0  0  0  0  0
    5.8327    3.6675    4.7435 H   0  0  0  0  0  0  0  0  0  0  0  0
    1.3204    6.8174    2.3016 H   0  0  0  0  0  0  0  0  0  0  0  0
    1.0856    5.9514    0.7784 H   0  0  0  0  0  0  0  0  0  0  0  0
    2.5662    6.8911    1.0542 H   0  0  0  0  0  0  0  0  0  0  0  0
   -4.4822   -0.4082   -2.3765 H   0  0  0  0  0  0  0  0  0  0  0  0
   -3.1536   -1.5642   -2.5036 H   0  0  0  0  0  0  0  0  0  0  0  0
   -2.7997    0.1244   -2.1472 H   0  0  0  0  0  0  0  0  0  0  0  0
   -6.7307   -2.8160    1.3893 H   0  0  0  0  0  0  0  0  0  0  0  0
   -6.8228   -1.2299    2.1540 H   0  0  0  0  0  0  0  0  0  0  0  0
   -6.0513   -2.5762    3.0090 H   0  0  0  0  0  0  0  0  0  0  0  0
   -4.1274   -1.7489    6.8216 H   0  0  0  0  0  0  0  0  0  0  0  0
   -2.7918   -2.0829    7.9215 H   0  0  0  0  0  0  0  0  0  0  0  0
   -3.9399   -3.3679    7.5282 H   0  0  0  0  0  0  0  0  0  0  0  0
   -1.5127   -6.5476    4.0370 H   0  0  0  0  0  0  0  0  0  0  0  0
   -0.6744   -6.4905    5.5889 H   0  0  0  0  0  0  0  0  0  0  0  0
    0.1753   -6.0356    4.0928 H   0  0  0  0  0  0  0  0  0  0  0  0
    5.2702   -2.5554   -0.5037 H   0  0  0  0  0  0  0  0  0  0  0  0
    6.2865   -3.1353    0.8331 H   0  0  0  0  0  0  0  0  0  0  0  0
    5.9134   -4.2084   -0.5375 H   0  0  0  0  0  0  0  0  0  0  0  0
    3.6539   -5.4748    2.1651 H   0  0  0  0  0  0  0  0  0  0  0  0
    5.3898   -5.1132    2.2389 H   0  0  0  0  0  0  0  0  0  0  0  0
    4.7257   -6.0189    0.8578 H   0  0  0  0  0  0  0  0  0  0  0  0
    2.1886   -6.0290    5.6830 H   0  0  0  0  0  0  0  0  0  0  0  0
    1.2399   -4.7237    6.4158 H   0  0  0  0  0  0  0  0  0  0  0  0
    2.6624   -5.3764    7.2664 H   0  0  0  0  0  0  0  0  0  0  0  0
    5.0914   -3.9028    4.7494 H   0  0  0  0  0  0  0  0  0  0  0  0
    4.4430   -5.5537    4.7104 H   0  0  0  0  0  0  0  0  0  0  0  0
    5.0381   -4.8655    6.2398 H   0  0  0  0  0  0  0  0  0  0  0  0
   -0.5649    1.4009    4.8013 H   0  0  0  0  0  0  0  0  0  0  0  0
   -1.2739    1.5042    1.5537 H   0  0  0  0  0  0  0  0  0  0  0  0
   -8.1708    3.2498   -1.3634 C   0  0  0  0  0  0  0  0  0  0  0  0
   -6.8810    2.6758   -1.3145 O   0  0  0  0  0  0  0  0  0  0  0  0
   -6.2278    2.6504   -0.1175 C   0  0  0  0  0  3  0  0  0  0  0  0
   -4.9472    2.0953   -0.1288 C   0  0  0  0  0  3  0  0  0  0  0  0
   -4.2031    2.0089    1.0308 C   0  0  0  0  0  3  0  0  0  0  0  0
   -4.7051    2.4836    2.2416 C   0  0  0  0  0  3  0  0  0  0  0  0
   -3.8988    2.4122    3.5281 C   0  0  0  0  0  0  0  0  0  0  0  0
   -3.0276    1.2073    3.5610 N   0  0  0  0  0  4  0  0  0  0  0  0
   -4.8935    2.2545    4.6775 C   0  0  0  0  0  3  0  0  0  0  0  0
   -5.5400    1.0260    4.8178 C   0  0  0  0  0  3  0  0  0  0  0  0
   -6.4343    0.7787    5.8436 C   0  0  0  0  0  3  0  0  0  0  0  0
   -6.7235    1.7800    6.7689 C   0  0  0  0  0  3  0  0  0  0  0  0
   -7.5829    1.6564    7.8191 O   0  0  0  0  0  0  0  0  0  0  0  0
   -8.1988    0.4043    8.0408 C   0  0  0  0  0  0  0  0  0  0  0  0
   -6.1087    3.0230    6.6188 C   0  0  0  0  0  3  0  0  0  0  0  0
   -5.2127    3.2544    5.5919 C   0  0  0  0  0  3  0  0  0  0  0  0
   -2.9348    3.6104    3.7537 C   0  0  0  0  0  0  0  0  0  0  0  0
   -1.5523    3.2942    3.3647 N   0  0  0  0  0  4  0  0  0  0  0  0
   -3.4073    4.9605    3.1628 C   0  0  0  0  0  0  0  0  0  0  0  0
   -2.8285    6.1149    3.9895 C   0  0  0  0  0  0  0  0  0  0  0  0
   -3.0446    5.1664    1.6880 C   0  0  0  0  0  0  0  0  0  0  0  0
   -5.9791    3.0439    2.2427 C   0  0  0  0  0  3  0  0  0  0  0  0
   -6.7377    3.1293    1.0867 C   0  0  0  0  0  3  0  0  0  0  0  0
   -8.4876    3.1735   -2.4045 H   0  0  0  0  0  0  0  0  0  0  0  0
   -8.1516    4.3044   -1.0662 H   0  0  0  0  0  0  0  0  0  0  0  0
   -8.8772    2.7039   -0.7280 H   0  0  0  0  0  0  0  0  0  0  0  0
   -4.5493    1.7397   -1.0691 H   0  0  0  0  0  0  0  0  0  0  0  0
   -3.2082    1.5876    0.9906 H   0  0  0  0  0  0  0  0  0  0  0  0
   -2.9648    0.9423    4.5397 H   0  0  0  0  0  0  0  0  0  0  0  0
   -3.4868    0.4532    3.0587 H   0  0  0  0  0  0  0  0  0  0  0  0
   -5.3601    0.2332    4.1013 H   0  0  0  0  0  0  0  0  0  0  0  0
   -6.9013   -0.1942    5.9077 H   0  0  0  0  0  0  0  0  0  0  0  0
   -7.4556   -0.3807    8.2200 H   0  0  0  0  0  0  0  0  0  0  0  0
   -8.8407    0.1181    7.2001 H   0  0  0  0  0  0  0  0  0  0  0  0
   -8.8109    0.5330    8.9347 H   0  0  0  0  0  0  0  0  0  0  0  0
   -6.3471    3.8028    7.3293 H   0  0  0  0  0  0  0  0  0  0  0  0
   -4.7709    4.2377    5.5161 H   0  0  0  0  0  0  0  0  0  0  0  0
   -2.8882    3.7263    4.8430 H   0  0  0  0  0  0  0  0  0  0  0  0
   -1.3108    3.8163    2.5285 H   0  0  0  0  0  0  0  0  0  0  0  0
   -0.9895    3.6407    4.1519 H   0  0  0  0  0  0  0  0  0  0  0  0
   -4.5016    4.9883    3.2468 H   0  0  0  0  0  0  0  0  0  0  0  0
   -1.7384    6.1040    3.9561 H   0  0  0  0  0  0  0  0  0  0  0  0
   -3.1295    6.0417    5.0344 H   0  0  0  0  0  0  0  0  0  0  0  0
   -3.1738    7.0714    3.5970 H   0  0  0  0  0  0  0  0  0  0  0  0
   -3.2156    4.2655    1.1024 H   0  0  0  0  0  0  0  0  0  0  0  0
   -2.0047    5.4751    1.5733 H   0  0  0  0  0  0  0  0  0  0  0  0
   -3.6627    5.9615    1.2707 H   0  0  0  0  0  0  0  0  0  0  0  0
   -6.4059    3.4203    3.1640 H   0  0  0  0  0  0  0  0  0  0  0  0
   -7.7227    3.5709    1.1420 H   0  0  0  0  0  0  0  0  0  0  0  0
   -1.3223    3.3079    6.0132 O   0  0  0  0  0  0  0  0  0  0  0  0
   -0.6425    2.2801    6.2817 C   0  0  0  0  0  0  0  0  0  0  0  0
    0.8009    2.6135    6.6105 C   0  0  0  0  0  3  0  0  0  0  0  0
    1.4484    3.5308    5.7972 C   0  0  0  0  0  3  0  0  0  0  0  0
    2.7040    4.0436    6.1662 C   0  0  0  0  0  3  0  0  0  0  0  0
    3.2781    3.6372    7.3089 C   0  0  0  0  0  3  0  0  0  0  0  0
    2.6252    2.7449    8.1240 C   0  0  0  0  0  3  0  0  0  0  0  0
    1.3860    2.2542    7.7729 C   0  0  0  0  0  3  0  0  0  0  0  0
   -1.2497    1.1370    7.0834 C   0  0  0  0  0  0  0  0  0  0  0  0
   -0.4209   -0.1398    7.0437 C   0  0  0  0  0  0  0  0  0  0  0  0
   -0.4209   -0.8612    8.3752 C   0  0  0  0  0  0  0  0  0  0  0  0
    0.2213   -2.1507    8.3260 N   0  0  0  0  0  0  0  0  0  0  0  0
    0.5991   -2.8322    9.5676 C   0  0  0  0  0  0  0  0  0  0  0  0
    0.1425   -4.2963    9.5228 C   0  0  0  0  0  0  0  0  0  0  0  0
    0.5410   -5.0094   10.8125 C   0  0  0  0  0  0  0  0  0  0  0  0
    2.0487   -4.9301   11.0190 C   0  0  0  0  0  0  0  0  0  0  0  0
    2.4986   -3.4729   11.0738 C   0  0  0  0  0  0  0  0  0  0  0  0
    2.1083   -2.7429    9.7935 C   0  0  0  0  0  0  0  0  0  0  0  0
   -0.9385   -0.4471    9.4280 O   0  0  0  0  0  0  0  0  0  0  0  0
    0.9943    3.8546    4.8816 H   0  0  0  0  0  0  0  0  0  0  0  0
    3.1761    4.7598    5.5225 H   0  0  0  0  0  0  0  0  0  0  0  0
    4.2373    4.0180    7.6037 H   0  0  0  0  0  0  0  0  0  0  0  0
    3.0694    2.4394    9.0515 H   0  0  0  0  0  0  0  0  0  0  0  0
    0.8955    1.6034    8.4696 H   0  0  0  0  0  0  0  0  0  0  0  0
   -1.3188    1.4838    8.1006 H   0  0  0  0  0  0  0  0  0  0  0  0
   -2.2586    0.9612    6.7508 H   0  0  0  0  0  0  0  0  0  0  0  0
   -0.7702   -0.8197    6.2865 H   0  0  0  0  0  0  0  0  0  0  0  0
    0.6019    0.0845    6.7961 H   0  0  0  0  0  0  0  0  0  0  0  0
    0.7979   -2.3325    7.5074 H   0  0  0  0  0  0  0  0  0  0  0  0
    0.0754   -2.3162   10.3549 H   0  0  0  0  0  0  0  0  0  0  0  0
   -0.9252   -4.3286    9.3909 H   0  0  0  0  0  0  0  0  0  0  0  0
    0.6043   -4.7848    8.6825 H   0  0  0  0  0  0  0  0  0  0  0  0
    0.2296   -6.0392   10.7683 H   0  0  0  0  0  0  0  0  0  0  0  0
    0.0426   -4.5430   11.6451 H   0  0  0  0  0  0  0  0  0  0  0  0
    2.5489   -5.4281   10.2057 H   0  0  0  0  0  0  0  0  0  0  0  0
    2.3191   -5.4292   11.9342 H   0  0  0  0  0  0  0  0  0  0  0  0
    3.5659   -3.4233   11.2073 H   0  0  0  0  0  0  0  0  0  0  0  0
    2.0319   -2.9892   11.9149 H   0  0  0  0  0  0  0  0  0  0  0  0
    2.6193   -3.1768    8.9515 H   0  0  0  0  0  0  0  0  0  0  0  0
    2.3937   -1.7070    9.8606 H   0  0  0  0  0  0  0  0  0  0  0  0
  1  2  1  0  0  0  0
  1 38  1  0  0  0  0
  1 58  1  0  0  0  0
  2  3  1  0  0  0  0
  2 42  1  0  0  0  0
  3  4  1  0  0  0  0
  3 59  1  0  0  0  0
  4  5  1  0  0  0  0
  4 37  1  0  0  0  0
  5  6  1  0  0  0  0
  5 12  1  0  0  0  0
  5 39  1  0  0  0  0
  6  7  1  0  0  0  0
  6 11  1  0  0  0  0
  7  8  1  0  0  0  0
  7 60  1  0  0  0  0
  8  9  1  0  0  0  0
  8 41  1  0  0  0  0
  9 10  1  0  0  0  0
  9 61  1  0  0  0  0
 10 11  1  0  0  0  0
 10 40  1  0  0  0  0
 11 62  1  0  0  0  0
 12 13  1  0  0  0  0
 12 36  1  0  0  0  0
 13 14  1  0  0  0  0
 13 33  1  0  0  0  0
 14 15  1  0  0  0  0
 14 32  1  0  0  0  0
 15 16  1  0  0  0  0
 15 29  1  0  0  0  0
 16 17  1  0  0  0  0
 16 23  1  0  0  0  0
 17 18  1  0  0  0  0
 17 22  1  0  0  0  0
 18 19  1  0  0  0  0
 18 63  1  0  0  0  0
 19 20  1  0  0  0  0
 19 46  1  0  0  0  0
 20 21  1  0  0  0  0
 20 64  1  0  0  0  0
 21 22  1  0  0  0  0
 21 47  1  0  0  0  0
 22 65  1  0  0  0  0
 23 24  1  0  0  0  0
 23 28  1  0  0  0  0
 24 25  1  0  0  0  0
 24 66  1  0  0  0  0
 25 26  1  0  0  0  0
 25 44  1  0  0  0  0
 26 27  1  0  0  0  0
 26 67  1  0  0  0  0
 27 28  1  0  0  0  0
 27 45  1  0  0  0  0
 28 68  1  0  0  0  0
 29 30  1  0  0  0  0
 29 69  1  0  0  0  0
 30 31  1  0  0  0  0
 30 70  1  0  0  0  0
 31 32  1  0  0  0  0
 32 48  1  0  0  0  0
 33 34  1  0  0  0  0
 34 35  1  0  0  0  0
 34 53  1  0  0  0  0
 35 36  1  0  0  0  0
 35 71  1  0  0  0  0
 36 72  1  0  0  0  0
 37 38  1  0  0  0  0
 37 73  1  0  0  0  0
 38 43  1  0  0  0  0
 39 16  1  0  0  0  0
 39129  1  0  0  0  0
 40 74  1  0  0  0  0
 40 75  1  0  0  0  0
 40 76  1  0  0  0  0
 41 77  1  0  0  0  0
 41 78  1  0  0  0  0
 41 79  1  0  0  0  0
 42 80  1  0  0  0  0
 42 81  1  0  0  0  0
 42 82  1  0  0  0  0
 43 83  1  0  0  0  0
 43 84  1  0  0  0  0
 43 85  1  0  0  0  0
 44 86  1  0  0  0  0
 44 87  1  0  0  0  0
 44 88  1  0  0  0  0
 45 89  1  0  0  0  0
 45 90  1  0  0  0  0
 45 91  1  0  0  0  0
 46 92  1  0  0  0  0
 46 93  1  0  0  0  0
 46 94  1  0  0  0  0
 47 95  1  0  0  0  0
 47 96  1  0  0  0  0
 47 97  1  0  0  0  0
 48 49  1  0  0  0  0
 49 50  1  0  0  0  0
 49 51  1  0  0  0  0
 49 52  1  0  0  0  0
 50 31  1  0  0  0  0
 51 98  1  0  0  0  0
 51 99  1  0  0  0  0
 51100  1  0  0  0  0
 52101  1  0  0  0  0
 52102  1  0  0  0  0
 52103  1  0  0  0  0
 53 54  1  0  0  0  0
 54 55  1  0  0  0  0
 54 56  1  0  0  0  0
 54 57  1  0  0  0  0
 55 33  1  0  0  0  0
 56104  1  0  0  0  0
 56105  1  0  0  0  0
 56106  1  0  0  0  0
 57107  1  0  0  0  0
 57108  1  0  0  0  0
 57109  1  0  0  0  0
110 39  1  0  0  0  0
111 39  1  0  0  0  0
112113  1  0  0  0  0
112135  1  0  0  0  0
112136  1  0  0  0  0
112137  1  0  0  0  0
113114  1  0  0  0  0
114115  1  0  0  0  0
114134  1  0  0  0  0
115116  1  0  0  0  0
115138  1  0  0  0  0
116117  1  0  0  0  0
116139  1  0  0  0  0
117118  1  0  0  0  0
117133  1  0  0  0  0
118119  1  0  0  0  0
118120  1  0  0  0  0
118128  1  0  0  0  0
119140  1  0  0  0  0
119141  1  0  0  0  0
119 39  1  0  0  0  0
120121  1  0  0  0  0
120127  1  0  0  0  0
121122  1  0  0  0  0
121142  1  0  0  0  0
122123  1  0  0  0  0
122143  1  0  0  0  0
123124  1  0  0  0  0
123126  1  0  0  0  0
124125  1  0  0  0  0
125144  1  0  0  0  0
125145  1  0  0  0  0
125146  1  0  0  0  0
126127  1  0  0  0  0
126147  1  0  0  0  0
127148  1  0  0  0  0
128129  1  0  0  0  0
128130  1  0  0  0  0
128149  1  0  0  0  0
129150  1  0  0  0  0
129151  1  0  0  0  0
130131  1  0  0  0  0
130132  1  0  0  0  0
130152  1  0  0  0  0
131153  1  0  0  0  0
131154  1  0  0  0  0
131155  1  0  0  0  0
132156  1  0  0  0  0
132157  1  0  0  0  0
132158  1  0  0  0  0
133134  1  0  0  0  0
133159  1  0  0  0  0
134160  1  0  0  0  0
161162  2  0  0  0  0
161151  1  0  0  0  0
162163  1  0  0  0  0
162169  1  0  0  0  0
162110  1  0  0  0  0
163164  1  0  0  0  0
163168  1  0  0  0  0
164165  1  0  0  0  0
164180  1  0  0  0  0
165166  1  0  0  0  0
165181  1  0  0  0  0
166167  1  0  0  0  0
166182  1  0  0  0  0
167168  1  0  0  0  0
167183  1  0  0  0  0
168184  1  0  0  0  0
169170  1  0  0  0  0
169185  1  0  0  0  0
169186  1  0  0  0  0
170171  1  0  0  0  0
170187  1  0  0  0  0
170188  1  0  0  0  0
171172  1  0  0  0  0
171179  2  0  0  0  0
172173  1  0  0  0  0
172189  1  0  0  0  0
173174  1  0  0  0  0
173178  1  0  0  0  0
173190  1  0  0  0  0
174175  1  0  0  0  0
174191  1  0  0  0  0
174192  1  0  0  0  0
175176  1  0  0  0  0
175193  1  0  0  0  0
175194  1  0  0  0  0
176177  1  0  0  0  0
176195  1  0  0  0  0
176196  1  0  0  0  0
177178  1  0  0  0  0
177197  1  0  0  0  0
177198  1  0  0  0  0
178199  1  0  0  0  0
178200  1  0  0  0  0
M  END
