 energy: -287.139284294016 gnorm: 0.000870386502 xtb: 6.7.1 (edcfbbe)
          07072519353D

199214  0     0  0            999 V2000
   -4.2828   -2.1967    0.6215 C   0  0  0  0  0  3  0  0  0  0  0  0
   -4.3222   -2.5367    1.9677 C   0  0  0  0  0  3  0  0  0  0  0  0
   -3.1416   -2.5308    2.7027 C   0  0  0  0  0  3  0  0  0  0  0  0
   -1.9280   -2.2046    2.1067 C   0  0  0  0  0  3  0  0  0  0  0  0
   -0.4177   -1.8216    3.0959 P   0  0  0  0  0  4  0  0  0  0  0  0
   -0.7629   -2.9053    4.5451 C   0  0  0  0  0  3  0  0  0  0  0  0
   -1.6365   -2.3949    5.4939 C   0  0  0  0  0  3  0  0  0  0  0  0
   -2.1194   -3.1864    6.5300 C   0  0  0  0  0  3  0  0  0  0  0  0
   -1.6517   -4.4885    6.6410 C   0  0  0  0  0  3  0  0  0  0  0  0
   -0.7278   -5.0031    5.7353 C   0  0  0  0  0  3  0  0  0  0  0  0
   -0.3154   -4.2193    4.6670 C   0  0  0  0  0  3  0  0  0  0  0  0
    0.9090   -2.8026    2.2715 C   0  0  0  0  0  3  0  0  0  0  0  0
    2.2352   -2.6668    2.6518 C   0  0  0  0  0  3  0  0  0  0  0  0
    2.7126   -1.7905    3.7589 C   0  0  0  0  0  3  0  0  0  0  0  0
    2.8338   -0.4156    3.6129 C   0  0  0  0  0  3  0  0  0  0  0  0
    1.7842    0.4692    2.3888 P   0  0  0  0  0  4  0  0  0  0  0  0
    2.5531    2.1309    2.1655 C   0  0  0  0  0  3  0  0  0  0  0  0
    2.2909    3.1068    3.1277 C   0  0  0  0  0  3  0  0  0  0  0  0
    2.6620    4.4301    2.9277 C   0  0  0  0  0  3  0  0  0  0  0  0
    3.3181    4.7720    1.7497 C   0  0  0  0  0  3  0  0  0  0  0  0
    3.6026    3.8168    0.7828 C   0  0  0  0  0  3  0  0  0  0  0  0
    3.2055    2.5011    0.9946 C   0  0  0  0  0  3  0  0  0  0  0  0
    2.3156   -0.2923    0.7977 C   0  0  0  0  0  3  0  0  0  0  0  0
    1.4136   -0.3041   -0.2550 C   0  0  0  0  0  3  0  0  0  0  0  0
    1.7822   -0.8062   -1.4983 C   0  0  0  0  0  3  0  0  0  0  0  0
    3.0731   -1.2853   -1.6670 C   0  0  0  0  0  3  0  0  0  0  0  0
    4.0042   -1.2513   -0.6321 C   0  0  0  0  0  3  0  0  0  0  0  0
    3.6188   -0.7482    0.6020 C   0  0  0  0  0  3  0  0  0  0  0  0
    3.5453    0.3352    4.5711 C   0  0  0  0  0  3  0  0  0  0  0  0
    4.1143   -0.2612    5.6597 C   0  0  0  0  0  3  0  0  0  0  0  0
    3.9555   -1.6471    5.8811 C   0  0  0  0  0  3  0  0  0  0  0  0
    4.5173   -2.2834    7.0110 C   0  0  0  0  0  3  0  0  0  0  0  0
    4.3864   -3.6323    7.1941 C   0  0  0  0  0  3  0  0  0  0  0  0
    3.6669   -4.3982    6.2624 C   0  0  0  0  0  3  0  0  0  0  0  0
    3.1164   -3.8112    5.1564 C   0  0  0  0  0  3  0  0  0  0  0  0
    3.2499   -2.4215    4.9217 C   0  0  0  0  0  3  0  0  0  0  0  0
    3.2401   -3.4451    1.9982 C   0  0  0  0  0  3  0  0  0  0  0  0
    4.6147   -3.3455    2.3241 C   0  0  0  0  0  3  0  0  0  0  0  0
    5.5529   -4.1135    1.6908 C   0  0  0  0  0  3  0  0  0  0  0  0
    5.1771   -5.0190    0.6849 C   0  0  0  0  0  3  0  0  0  0  0  0
    3.8613   -5.1287    0.3295 C   0  0  0  0  0  3  0  0  0  0  0  0
    2.8694   -4.3535    0.9716 C   0  0  0  0  0  3  0  0  0  0  0  0
    1.5051   -4.4845    0.6353 C   0  0  0  0  0  3  0  0  0  0  0  0
    0.5595   -3.7352    1.2737 C   0  0  0  0  0  3  0  0  0  0  0  0
   -1.9123   -1.8846    0.7494 C   0  0  0  0  0  3  0  0  0  0  0  0
   -3.0808   -1.8733    0.0008 C   0  0  0  0  0  3  0  0  0  0  0  0
   -0.3879    0.4762    3.1385 Ru  0  0  0  0  0  0  0  0  0  0  0  0
    0.7932   -0.8097   -2.6298 C   0  0  0  0  0  0  0  0  0  0  0  0
    5.4056   -1.7381   -0.8719 C   0  0  0  0  0  0  0  0  0  0  0  0
    2.3582    5.4894    3.9501 C   0  0  0  0  0  0  0  0  0  0  0  0
    4.2963    4.2115   -0.4908 C   0  0  0  0  0  0  0  0  0  0  0  0
   -3.0345   -1.4930   -1.4531 C   0  0  0  0  0  0  0  0  0  0  0  0
   -5.6264   -2.9027    2.6199 C   0  0  0  0  0  0  0  0  0  0  0  0
   -3.1527   -2.6176    7.4602 C   0  0  0  0  0  0  0  0  0  0  0  0
   -0.1796   -6.3899    5.9240 C   0  0  0  0  0  0  0  0  0  0  0  0
   -5.2035   -2.1806    0.0504 H   0  0  0  0  0  0  0  0  0  0  0  0
   -3.1776   -2.7945    3.7518 H   0  0  0  0  0  0  0  0  0  0  0  0
   -1.9428   -1.3585    5.4338 H   0  0  0  0  0  0  0  0  0  0  0  0
   -2.0126   -5.1219    7.4425 H   0  0  0  0  0  0  0  0  0  0  0  0
    0.3493   -4.6366    3.9204 H   0  0  0  0  0  0  0  0  0  0  0  0
    1.7939    2.8177    4.0459 H   0  0  0  0  0  0  0  0  0  0  0  0
    3.6047    5.8032    1.5819 H   0  0  0  0  0  0  0  0  0  0  0  0
    3.4060    1.7633    0.2293 H   0  0  0  0  0  0  0  0  0  0  0  0
    0.4248    0.1006   -0.0864 H   0  0  0  0  0  0  0  0  0  0  0  0
    3.3751   -1.6808   -2.6296 H   0  0  0  0  0  0  0  0  0  0  0  0
    4.3324   -0.6953    1.4155 H   0  0  0  0  0  0  0  0  0  0  0  0
    3.6665    1.3980    4.4058 H   0  0  0  0  0  0  0  0  0  0  0  0
    4.6921    0.3178    6.3702 H   0  0  0  0  0  0  0  0  0  0  0  0
    5.0624   -1.6786    7.7259 H   0  0  0  0  0  0  0  0  0  0  0  0
    4.8366   -4.1171    8.0514 H   0  0  0  0  0  0  0  0  0  0  0  0
    3.5556   -5.4627    6.4266 H   0  0  0  0  0  0  0  0  0  0  0  0
    2.5737   -4.4122    4.4391 H   0  0  0  0  0  0  0  0  0  0  0  0
    4.9297   -2.6480    3.0887 H   0  0  0  0  0  0  0  0  0  0  0  0
    6.5978   -4.0237    1.9604 H   0  0  0  0  0  0  0  0  0  0  0  0
    5.9332   -5.6197    0.1949 H   0  0  0  0  0  0  0  0  0  0  0  0
    3.5535   -5.8158   -0.4495 H   0  0  0  0  0  0  0  0  0  0  0  0
    1.2195   -5.2006   -0.1258 H   0  0  0  0  0  0  0  0  0  0  0  0
   -0.4859   -3.8710    1.0307 H   0  0  0  0  0  0  0  0  0  0  0  0
   -0.9721   -1.6146    0.2861 H   0  0  0  0  0  0  0  0  0  0  0  0
    1.2583   -1.1430   -3.5571 H   0  0  0  0  0  0  0  0  0  0  0  0
    0.3916    0.1942   -2.7773 H   0  0  0  0  0  0  0  0  0  0  0  0
   -0.0386   -1.4765   -2.3976 H   0  0  0  0  0  0  0  0  0  0  0  0
    5.3967   -2.7983   -1.1277 H   0  0  0  0  0  0  0  0  0  0  0  0
    6.0207   -1.6034    0.0171 H   0  0  0  0  0  0  0  0  0  0  0  0
    5.8608   -1.1946   -1.7017 H   0  0  0  0  0  0  0  0  0  0  0  0
    1.4779    5.2257    4.5393 H   0  0  0  0  0  0  0  0  0  0  0  0
    2.1828    6.4511    3.4683 H   0  0  0  0  0  0  0  0  0  0  0  0
    3.1978    5.6063    4.6354 H   0  0  0  0  0  0  0  0  0  0  0  0
    5.1444    4.8628   -0.2817 H   0  0  0  0  0  0  0  0  0  0  0  0
    3.6074    4.7559   -1.1387 H   0  0  0  0  0  0  0  0  0  0  0  0
    4.6487    3.3300   -1.0281 H   0  0  0  0  0  0  0  0  0  0  0  0
   -2.5917   -2.2989   -2.0419 H   0  0  0  0  0  0  0  0  0  0  0  0
   -2.4212   -0.6009   -1.5802 H   0  0  0  0  0  0  0  0  0  0  0  0
   -4.0353   -1.2979   -1.8387 H   0  0  0  0  0  0  0  0  0  0  0  0
   -5.9419   -3.8963    2.2951 H   0  0  0  0  0  0  0  0  0  0  0  0
   -6.4106   -2.1978    2.3439 H   0  0  0  0  0  0  0  0  0  0  0  0
   -5.5288   -2.9154    3.7054 H   0  0  0  0  0  0  0  0  0  0  0  0
   -4.1073   -2.5231    6.9415 H   0  0  0  0  0  0  0  0  0  0  0  0
   -2.8444   -1.6204    7.7806 H   0  0  0  0  0  0  0  0  0  0  0  0
   -3.2982   -3.2525    8.3334 H   0  0  0  0  0  0  0  0  0  0  0  0
    0.6349   -6.3669    6.6496 H   0  0  0  0  0  0  0  0  0  0  0  0
    0.2113   -6.7865    4.9874 H   0  0  0  0  0  0  0  0  0  0  0  0
   -0.9478   -7.0670    6.3022 H   0  0  0  0  0  0  0  0  0  0  0  0
   -0.9185    0.4787    1.6459 H   0  0  0  0  0  0  0  0  0  0  0  0
    0.0733    0.6335    4.8190 H   0  0  0  0  0  0  0  0  0  0  0  0
   -4.6232    8.9121    2.8968 C   0  0  0  0  0  0  0  0  0  0  0  0
   -3.5666    8.2849    3.5942 O   0  0  0  0  0  0  0  0  0  0  0  0
   -3.2676    6.9906    3.2930 C   0  0  0  0  0  3  0  0  0  0  0  0
   -2.2132    6.4220    4.0079 C   0  0  0  0  0  3  0  0  0  0  0  0
   -1.8342    5.1122    3.7872 C   0  0  0  0  0  3  0  0  0  0  0  0
   -2.4909    4.3155    2.8494 C   0  0  0  0  0  3  0  0  0  0  0  0
   -2.0729    2.8706    2.5660 C   0  0  0  0  0  0  0  0  0  0  0  0
   -0.8171    2.5453    3.2590 N   0  0  0  0  0  4  0  0  0  0  0  0
   -1.8222    2.7976    1.0554 C   0  0  0  0  0  3  0  0  0  0  0  0
   -2.8101    2.4299    0.1470 C   0  0  0  0  0  3  0  0  0  0  0  0
   -2.5632    2.3337   -1.2144 C   0  0  0  0  0  3  0  0  0  0  0  0
   -1.2968    2.6161   -1.7162 C   0  0  0  0  0  3  0  0  0  0  0  0
   -0.9252    2.5100   -3.0243 O   0  0  0  0  0  0  0  0  0  0  0  0
   -1.8901    2.0825   -3.9631 C   0  0  0  0  0  0  0  0  0  0  0  0
   -0.3178    3.0578   -0.8258 C   0  0  0  0  0  3  0  0  0  0  0  0
   -0.5848    3.1632    0.5228 C   0  0  0  0  0  3  0  0  0  0  0  0
   -3.1063    1.7804    3.0354 C   0  0  0  0  0  0  0  0  0  0  0  0
   -2.4111    0.7157    3.7763 N   0  0  0  0  0  4  0  0  0  0  0  0
   -4.3525    2.2733    3.8034 C   0  0  0  0  0  0  0  0  0  0  0  0
   -5.3619    1.1240    3.9119 C   0  0  0  0  0  0  0  0  0  0  0  0
   -4.0540    2.8206    5.2019 C   0  0  0  0  0  0  0  0  0  0  0  0
   -3.5244    4.9030    2.1238 C   0  0  0  0  0  3  0  0  0  0  0  0
   -3.9195    6.2129    2.3389 C   0  0  0  0  0  3  0  0  0  0  0  0
   -4.6817    9.9233    3.3021 H   0  0  0  0  0  0  0  0  0  0  0  0
   -5.5755    8.3974    3.0659 H   0  0  0  0  0  0  0  0  0  0  0  0
   -4.4188    8.9627    1.8217 H   0  0  0  0  0  0  0  0  0  0  0  0
   -1.6974    7.0306    4.7385 H   0  0  0  0  0  0  0  0  0  0  0  0
   -1.0127    4.7311    4.3796 H   0  0  0  0  0  0  0  0  0  0  0  0
   -0.0852    3.1747    2.9458 H   0  0  0  0  0  0  0  0  0  0  0  0
   -0.9496    2.7038    4.2526 H   0  0  0  0  0  0  0  0  0  0  0  0
   -3.8130    2.1888    0.4757 H   0  0  0  0  0  0  0  0  0  0  0  0
   -3.3694    2.0270   -1.8661 H   0  0  0  0  0  0  0  0  0  0  0  0
   -2.7332    2.7805   -4.0173 H   0  0  0  0  0  0  0  0  0  0  0  0
   -2.2608    1.0780   -3.7299 H   0  0  0  0  0  0  0  0  0  0  0  0
   -1.3755    2.0630   -4.9251 H   0  0  0  0  0  0  0  0  0  0  0  0
    0.6623    3.3045   -1.2110 H   0  0  0  0  0  0  0  0  0  0  0  0
    0.2211    3.5268    1.1461 H   0  0  0  0  0  0  0  0  0  0  0  0
   -3.4707    1.2887    2.1272 H   0  0  0  0  0  0  0  0  0  0  0  0
   -2.3828    0.9089    4.7853 H   0  0  0  0  0  0  0  0  0  0  0  0
   -2.9319   -0.1486    3.6581 H   0  0  0  0  0  0  0  0  0  0  0  0
   -4.8132    3.0758    3.2136 H   0  0  0  0  0  0  0  0  0  0  0  0
   -6.3077    1.4931    4.3084 H   0  0  0  0  0  0  0  0  0  0  0  0
   -4.9985    0.3480    4.5865 H   0  0  0  0  0  0  0  0  0  0  0  0
   -5.5525    0.6743    2.9372 H   0  0  0  0  0  0  0  0  0  0  0  0
   -3.5908    2.0662    5.8385 H   0  0  0  0  0  0  0  0  0  0  0  0
   -4.9877    3.1223    5.6767 H   0  0  0  0  0  0  0  0  0  0  0  0
   -3.4089    3.6962    5.1497 H   0  0  0  0  0  0  0  0  0  0  0  0
   -4.0322    4.3320    1.3573 H   0  0  0  0  0  0  0  0  0  0  0  0
   -4.7316    6.6163    1.7503 H   0  0  0  0  0  0  0  0  0  0  0  0
   -1.6138    0.6692    6.5262 O   0  0  0  0  0  0  0  0  0  0  0  0
   -0.3618    0.8078    6.4738 C   0  0  0  0  0  0  0  0  0  0  0  0
    0.5469   -0.3110    6.9610 C   0  0  0  0  0  0  0  0  0  0  0  0
    0.9491   -0.1576    8.4230 C   0  0  0  0  0  0  0  0  0  0  0  0
    0.0949   -0.9828    9.3746 C   0  0  0  0  0  0  0  0  0  0  0  0
   -0.0522   -2.3873    8.9649 N   0  0  0  0  0  0  0  0  0  0  0  0
    1.1717   -3.1082    8.5949 C   0  0  0  0  0  0  0  0  0  0  0  0
    2.0081   -3.5223    9.7937 C   0  0  0  0  0  0  0  0  0  0  0  0
    1.1938   -4.3306   10.7047 N   0  0  0  0  0  0  0  0  0  0  0  0
    1.0424   -5.7296   10.3650 C   0  0  0  0  0  3  0  0  0  0  0  0
    1.9784   -6.2584    9.5843 N   0  0  0  0  0  2  0  0  0  0  0  0
    1.8956   -7.5564    9.3521 C   0  0  0  0  0  3  0  0  0  0  0  0
    0.8711   -8.3157    9.9067 C   0  0  0  0  0  3  0  0  0  0  0  0
    0.7826   -9.6261    9.6659 F   0  0  0  0  0  0  0  0  0  0  0  0
   -0.0472   -7.6702   10.7024 C   0  0  0  0  0  3  0  0  0  0  0  0
    0.0372   -6.3776   10.9294 N   0  0  0  0  0  2  0  0  0  0  0  0
   -0.0110   -3.6217   11.1449 C   0  0  0  0  0  0  0  0  0  0  0  0
   -0.8204   -3.1783    9.9367 C   0  0  0  0  0  0  0  0  0  0  0  0
    0.2120    2.2020    6.6384 C   0  0  0  0  0  3  0  0  0  0  0  0
   -0.6689    3.2509    6.8603 C   0  0  0  0  0  3  0  0  0  0  0  0
   -0.2023    4.5314    7.1082 C   0  0  0  0  0  3  0  0  0  0  0  0
    1.1403    4.7344    7.1412 C   0  0  0  0  0  3  0  0  0  0  0  0
    1.6098    5.9826    7.3967 F   0  0  0  0  0  0  0  0  0  0  0  0
    2.0353    3.7286    6.9228 C   0  0  0  0  0  3  0  0  0  0  0  0
    1.5614    2.4528    6.6647 C   0  0  0  0  0  3  0  0  0  0  0  0
    0.0143   -1.2374    6.8359 H   0  0  0  0  0  0  0  0  0  0  0  0
    1.4276   -0.3538    6.3451 H   0  0  0  0  0  0  0  0  0  0  0  0
    1.9815   -0.4422    8.5359 H   0  0  0  0  0  0  0  0  0  0  0  0
    0.8694    0.8703    8.7339 H   0  0  0  0  0  0  0  0  0  0  0  0
    0.5047   -0.8859   10.3665 H   0  0  0  0  0  0  0  0  0  0  0  0
   -0.9038   -0.5811    9.3805 H   0  0  0  0  0  0  0  0  0  0  0  0
    0.8551   -3.9927    8.0694 H   0  0  0  0  0  0  0  0  0  0  0  0
    1.7500   -2.5087    7.9149 H   0  0  0  0  0  0  0  0  0  0  0  0
    2.3461   -2.6635   10.3472 H   0  0  0  0  0  0  0  0  0  0  0  0
    2.8513   -4.1129    9.4818 H   0  0  0  0  0  0  0  0  0  0  0  0
    2.6452   -7.9890    8.7186 H   0  0  0  0  0  0  0  0  0  0  0  0
   -0.8654   -8.1907   11.1616 H   0  0  0  0  0  0  0  0  0  0  0  0
    0.3159   -2.7788   11.7289 H   0  0  0  0  0  0  0  0  0  0  0  0
   -0.5864   -4.2886   11.7627 H   0  0  0  0  0  0  0  0  0  0  0  0
   -1.6710   -2.5981   10.2496 H   0  0  0  0  0  0  0  0  0  0  0  0
   -1.1619   -4.0570    9.4179 H   0  0  0  0  0  0  0  0  0  0  0  0
   -1.7224    3.0521    6.8688 H   0  0  0  0  0  0  0  0  0  0  0  0
   -0.8822    5.3413    7.2856 H   0  0  0  0  0  0  0  0  0  0  0  0
    3.0884    3.9276    6.9563 H   0  0  0  0  0  0  0  0  0  0  0  0
    2.2640    1.6632    6.4857 H   0  0  0  0  0  0  0  0  0  0  0  0
  1  2  1  0  0  0  0
  1 46  1  0  0  0  0
  1 56  1  0  0  0  0
  2  3  1  0  0  0  0
  2 53  1  0  0  0  0
  3  4  1  0  0  0  0
  3 57  1  0  0  0  0
  4  5  1  0  0  0  0
  4 45  1  0  0  0  0
  5  6  1  0  0  0  0
  5 12  1  0  0  0  0
  5 47  1  0  0  0  0
  6  7  1  0  0  0  0
  6 11  1  0  0  0  0
  7  8  1  0  0  0  0
  7 58  1  0  0  0  0
  8  9  1  0  0  0  0
  8 54  1  0  0  0  0
  9 10  1  0  0  0  0
  9 59  1  0  0  0  0
 10 11  1  0  0  0  0
 10 55  1  0  0  0  0
 11 60  1  0  0  0  0
 12 13  1  0  0  0  0
 12 44  1  0  0  0  0
 13 14  1  0  0  0  0
 13 37  1  0  0  0  0
 14 15  1  0  0  0  0
 14 36  1  0  0  0  0
 15 16  1  0  0  0  0
 15 29  1  0  0  0  0
 16 17  1  0  0  0  0
 16 23  1  0  0  0  0
 17 18  1  0  0  0  0
 17 22  1  0  0  0  0
 18 19  1  0  0  0  0
 18 61  1  0  0  0  0
 19 20  1  0  0  0  0
 19 50  1  0  0  0  0
 20 21  1  0  0  0  0
 20 62  1  0  0  0  0
 21 22  1  0  0  0  0
 21 51  1  0  0  0  0
 22 63  1  0  0  0  0
 23 24  1  0  0  0  0
 23 28  1  0  0  0  0
 24 25  1  0  0  0  0
 24 64  1  0  0  0  0
 25 26  1  0  0  0  0
 25 48  1  0  0  0  0
 26 27  1  0  0  0  0
 26 65  1  0  0  0  0
 27 28  1  0  0  0  0
 27 49  1  0  0  0  0
 28 66  1  0  0  0  0
 29 30  1  0  0  0  0
 29 67  1  0  0  0  0
 30 31  1  0  0  0  0
 30 68  1  0  0  0  0
 31 32  1  0  0  0  0
 31 36  1  0  0  0  0
 32 33  1  0  0  0  0
 32 69  1  0  0  0  0
 33 34  1  0  0  0  0
 33 70  1  0  0  0  0
 34 35  1  0  0  0  0
 34 71  1  0  0  0  0
 35 36  1  0  0  0  0
 35 72  1  0  0  0  0
 37 38  1  0  0  0  0
 37 42  1  0  0  0  0
 38 39  1  0  0  0  0
 38 73  1  0  0  0  0
 39 40  1  0  0  0  0
 39 74  1  0  0  0  0
 40 41  1  0  0  0  0
 40 75  1  0  0  0  0
 41 42  1  0  0  0  0
 41 76  1  0  0  0  0
 42 43  1  0  0  0  0
 43 44  1  0  0  0  0
 43 77  1  0  0  0  0
 44 78  1  0  0  0  0
 45 46  1  0  0  0  0
 45 79  1  0  0  0  0
 46 52  1  0  0  0  0
 47 16  1  0  0  0  0
 47123  1  0  0  0  0
 48 80  1  0  0  0  0
 48 81  1  0  0  0  0
 48 82  1  0  0  0  0
 49 83  1  0  0  0  0
 49 84  1  0  0  0  0
 49 85  1  0  0  0  0
 50 86  1  0  0  0  0
 50 87  1  0  0  0  0
 50 88  1  0  0  0  0
 51 89  1  0  0  0  0
 51 90  1  0  0  0  0
 51 91  1  0  0  0  0
 52 92  1  0  0  0  0
 52 93  1  0  0  0  0
 52 94  1  0  0  0  0
 53 95  1  0  0  0  0
 53 96  1  0  0  0  0
 53 97  1  0  0  0  0
 54 98  1  0  0  0  0
 54 99  1  0  0  0  0
 54100  1  0  0  0  0
 55101  1  0  0  0  0
 55102  1  0  0  0  0
 55103  1  0  0  0  0
104 47  1  0  0  0  0
105 47  1  0  0  0  0
106107  1  0  0  0  0
106129  1  0  0  0  0
106130  1  0  0  0  0
106131  1  0  0  0  0
107108  1  0  0  0  0
108109  1  0  0  0  0
108128  1  0  0  0  0
109110  1  0  0  0  0
109132  1  0  0  0  0
110111  1  0  0  0  0
110133  1  0  0  0  0
111112  1  0  0  0  0
111127  1  0  0  0  0
112113  1  0  0  0  0
112114  1  0  0  0  0
112122  1  0  0  0  0
113134  1  0  0  0  0
113135  1  0  0  0  0
113 47  1  0  0  0  0
114115  1  0  0  0  0
114121  1  0  0  0  0
115116  1  0  0  0  0
115136  1  0  0  0  0
116117  1  0  0  0  0
116137  1  0  0  0  0
117118  1  0  0  0  0
117120  1  0  0  0  0
118119  1  0  0  0  0
119138  1  0  0  0  0
119139  1  0  0  0  0
119140  1  0  0  0  0
120121  1  0  0  0  0
120141  1  0  0  0  0
121142  1  0  0  0  0
122123  1  0  0  0  0
122124  1  0  0  0  0
122143  1  0  0  0  0
123144  1  0  0  0  0
123145  1  0  0  0  0
124125  1  0  0  0  0
124126  1  0  0  0  0
124146  1  0  0  0  0
125147  1  0  0  0  0
125148  1  0  0  0  0
125149  1  0  0  0  0
126150  1  0  0  0  0
126151  1  0  0  0  0
126152  1  0  0  0  0
127128  1  0  0  0  0
127153  1  0  0  0  0
128154  1  0  0  0  0
155156  2  0  0  0  0
155144  1  0  0  0  0
156157  1  0  0  0  0
156173  1  0  0  0  0
156105  1  0  0  0  0
157158  1  0  0  0  0
157180  1  0  0  0  0
157181  1  0  0  0  0
158159  1  0  0  0  0
158182  1  0  0  0  0
158183  1  0  0  0  0
159160  1  0  0  0  0
159184  1  0  0  0  0
159185  1  0  0  0  0
160161  1  0  0  0  0
160172  1  0  0  0  0
161162  1  0  0  0  0
161186  1  0  0  0  0
161187  1  0  0  0  0
162163  1  0  0  0  0
162188  1  0  0  0  0
162189  1  0  0  0  0
163164  1  0  0  0  0
163171  1  0  0  0  0
164165  1  0  0  0  0
164170  1  0  0  0  0
165166  1  0  0  0  0
166167  1  0  0  0  0
166190  1  0  0  0  0
167168  1  0  0  0  0
167169  1  0  0  0  0
169170  1  0  0  0  0
169191  1  0  0  0  0
171172  1  0  0  0  0
171192  1  0  0  0  0
171193  1  0  0  0  0
172194  1  0  0  0  0
172195  1  0  0  0  0
173174  1  0  0  0  0
173179  1  0  0  0  0
174175  1  0  0  0  0
174196  1  0  0  0  0
175176  1  0  0  0  0
175197  1  0  0  0  0
176177  1  0  0  0  0
176178  1  0  0  0  0
178179  1  0  0  0  0
178198  1  0  0  0  0
179199  1  0  0  0  0
M  END
