 energy: -265.820135223179 gnorm: 0.000958947439 xtb: 6.7.1 (edcfbbe)
          07072517363D

185199  0     0  0            999 V2000
    3.0388    3.4894    5.5037 C   0  0  0  0  0  3  0  0  0  0  0  0
    3.6032    2.1980    5.8011 C   0  0  0  0  0  3  0  0  0  0  0  0
    3.1195    1.0344    5.0933 C   0  0  0  0  0  3  0  0  0  0  0  0
    2.0976    1.1642    4.0919 C   0  0  0  0  0  3  0  0  0  0  0  0
    1.2499   -0.2144    3.2393 P   0  0  0  0  0  4  0  0  0  0  0  0
    2.2167   -1.7002    3.7949 C   0  0  0  0  0  3  0  0  0  0  0  0
    1.5551   -2.8673    4.3055 C   0  0  0  0  0  3  0  0  0  0  0  0
    2.3191   -4.0205    4.7145 C   0  0  0  0  0  3  0  0  0  0  0  0
    3.7497   -3.9799    4.6016 C   0  0  0  0  0  3  0  0  0  0  0  0
    4.4304   -2.8439    4.0578 C   0  0  0  0  0  3  0  0  0  0  0  0
    3.6582   -1.7008    3.6439 C   0  0  0  0  0  3  0  0  0  0  0  0
    1.9505   -0.1797    1.5033 C   0  0  0  0  0  3  0  0  0  0  0  0
    1.8871   -1.3777    0.6729 C   0  0  0  0  0  3  0  0  0  0  0  0
    1.3762   -2.6918    1.1907 C   0  0  0  0  0  3  0  0  0  0  0  0
   -0.0323   -2.9020    1.4622 C   0  0  0  0  0  3  0  0  0  0  0  0
   -1.1540   -1.4668    1.3083 P   0  0  0  0  0  4  0  0  0  0  0  0
   -0.8244   -1.1194   -0.4706 C   0  0  0  0  0  3  0  0  0  0  0  0
   -0.4630    0.1982   -0.8895 C   0  0  0  0  0  3  0  0  0  0  0  0
   -0.1176    0.4579   -2.2606 C   0  0  0  0  0  3  0  0  0  0  0  0
   -0.1764   -0.6226   -3.2051 C   0  0  0  0  0  3  0  0  0  0  0  0
   -0.5464   -1.9523   -2.8047 C   0  0  0  0  0  3  0  0  0  0  0  0
   -0.8570   -2.1983   -1.4251 C   0  0  0  0  0  3  0  0  0  0  0  0
   -2.8554   -2.1751    1.2606 C   0  0  0  0  0  3  0  0  0  0  0  0
   -3.4326   -2.5402    2.5321 C   0  0  0  0  0  3  0  0  0  0  0  0
   -4.8263   -2.8666    2.6462 C   0  0  0  0  0  3  0  0  0  0  0  0
   -5.6406   -2.8201    1.4660 C   0  0  0  0  0  3  0  0  0  0  0  0
   -5.0926   -2.4538    0.1918 C   0  0  0  0  0  3  0  0  0  0  0  0
   -3.6982   -2.1209    0.0976 C   0  0  0  0  0  3  0  0  0  0  0  0
   -0.5014   -4.2011    1.8988 C   0  0  0  0  0  3  0  0  0  0  0  0
    0.3952   -5.2967    2.0239 C   0  0  0  0  0  3  0  0  0  0  0  0
    1.8092   -5.1274    1.7492 C   0  0  0  0  0  3  0  0  0  0  0  0
    2.7345   -6.2415    1.8806 C   0  0  0  0  0  3  0  0  0  0  0  0
    4.1147   -6.0682    1.6092 C   0  0  0  0  0  3  0  0  0  0  0  0
    4.6156   -4.7775    1.2042 C   0  0  0  0  0  3  0  0  0  0  0  0
    3.7383   -3.6709    1.0768 C   0  0  0  0  0  3  0  0  0  0  0  0
    2.3125   -3.8260    1.3303 C   0  0  0  0  0  3  0  0  0  0  0  0
    2.4085   -1.3187   -0.7066 C   0  0  0  0  0  3  0  0  0  0  0  0
    2.3604   -2.4791   -1.5837 C   0  0  0  0  0  3  0  0  0  0  0  0
    2.8753   -2.4087   -2.9041 C   0  0  0  0  0  3  0  0  0  0  0  0
    3.4377   -1.1775   -3.4078 C   0  0  0  0  0  3  0  0  0  0  0  0
    3.4769   -0.0272   -2.5802 C   0  0  0  0  0  3  0  0  0  0  0  0
    2.9616   -0.0748   -1.2210 C   0  0  0  0  0  3  0  0  0  0  0  0
    2.9999    1.1007   -0.3715 C   0  0  0  0  0  3  0  0  0  0  0  0
    2.4993    1.0498    0.9567 C   0  0  0  0  0  3  0  0  0  0  0  0
    1.5194    2.4599    3.8397 C   0  0  0  0  0  3  0  0  0  0  0  0
    1.9882    3.6357    4.5311 C   0  0  0  0  0  3  0  0  0  0  0  0
   -1.2792    0.2654    3.0963 Ru  0  0  0  0  0  0  0  0  0  0  0  0
    5.9291   -2.8365    3.9354 C   0  0  0  0  0  0  0  0  0  0  0  0
    1.6352   -5.2418    5.2686 C   0  0  0  0  0  0  0  0  0  0  0  0
    4.6976    2.0552    6.8269 C   0  0  0  0  0  0  0  0  0  0  0  0
    1.3784    4.9860    4.2571 C   0  0  0  0  0  0  0  0  0  0  0  0
   -5.4190   -3.2055    3.9893 C   0  0  0  0  0  0  0  0  0  0  0  0
   -5.9720   -2.4133   -1.0290 C   0  0  0  0  0  0  0  0  0  0  0  0
    0.2956    1.8329   -2.7057 C   0  0  0  0  0  0  0  0  0  0  0  0
   -0.6102   -3.0657   -3.8169 C   0  0  0  0  0  0  0  0  0  0  0  0
    3.3991    4.3676    6.0396 H   0  0  0  0  0  0  0  0  0  0  0  0
    3.5292    0.0557    5.3387 H   0  0  0  0  0  0  0  0  0  0  0  0
    0.4793   -2.8871    4.3343 H   0  0  0  0  0  0  0  0  0  0  0  0
    4.3304   -4.8498    4.9098 H   0  0  0  0  0  0  0  0  0  0  0  0
    4.1508   -0.8387    3.1987 H   0  0  0  0  0  0  0  0  0  0  0  0
   -0.4305    0.9900   -0.1414 H   0  0  0  0  0  0  0  0  0  0  0  0
    0.0837   -0.4346   -4.2471 H   0  0  0  0  0  0  0  0  0  0  0  0
   -1.1105   -3.2039   -1.0933 H   0  0  0  0  0  0  0  0  0  0  0  0
   -2.8057   -2.5378    3.4199 H   0  0  0  0  0  0  0  0  0  0  0  0
   -6.7041   -3.0545    1.5397 H   0  0  0  0  0  0  0  0  0  0  0  0
   -3.2799   -1.8192   -0.8607 H   0  0  0  0  0  0  0  0  0  0  0  0
   -1.5624   -4.3360    2.1019 H   0  0  0  0  0  0  0  0  0  0  0  0
    0.0241   -6.2781    2.3208 H   0  0  0  0  0  0  0  0  0  0  0  0
    2.3485   -7.2128    2.1906 H   0  0  0  0  0  0  0  0  0  0  0  0
    4.8025   -6.9087    1.7059 H   0  0  0  0  0  0  0  0  0  0  0  0
    5.6791   -4.6536    0.9987 H   0  0  0  0  0  0  0  0  0  0  0  0
    4.1208   -2.6966    0.7766 H   0  0  0  0  0  0  0  0  0  0  0  0
    1.9319   -3.4091   -1.2147 H   0  0  0  0  0  0  0  0  0  0  0  0
    2.8433   -3.2885   -3.5468 H   0  0  0  0  0  0  0  0  0  0  0  0
    3.8284   -1.1374   -4.4242 H   0  0  0  0  0  0  0  0  0  0  0  0
    3.8966    0.9081   -2.9513 H   0  0  0  0  0  0  0  0  0  0  0  0
    3.4225    2.0267   -0.7629 H   0  0  0  0  0  0  0  0  0  0  0  0
    2.5383    1.9308    1.5882 H   0  0  0  0  0  0  0  0  0  0  0  0
    0.7006    2.5241    3.1228 H   0  0  0  0  0  0  0  0  0  0  0  0
    6.2995   -3.8397    3.6836 H   0  0  0  0  0  0  0  0  0  0  0  0
    6.3868   -2.5334    4.8874 H   0  0  0  0  0  0  0  0  0  0  0  0
    6.2516   -2.1304    3.1586 H   0  0  0  0  0  0  0  0  0  0  0  0
    1.5581   -5.1716    6.3623 H   0  0  0  0  0  0  0  0  0  0  0  0
    2.2084   -6.1463    5.0244 H   0  0  0  0  0  0  0  0  0  0  0  0
    0.6229   -5.3389    4.8519 H   0  0  0  0  0  0  0  0  0  0  0  0
    4.6373    2.8549    7.5773 H   0  0  0  0  0  0  0  0  0  0  0  0
    5.6807    2.1168    6.3386 H   0  0  0  0  0  0  0  0  0  0  0  0
    4.6287    1.0821    7.3322 H   0  0  0  0  0  0  0  0  0  0  0  0
    2.1444    5.6866    3.8965 H   0  0  0  0  0  0  0  0  0  0  0  0
    0.9463    5.4069    5.1756 H   0  0  0  0  0  0  0  0  0  0  0  0
    0.5910    4.9053    3.4959 H   0  0  0  0  0  0  0  0  0  0  0  0
   -5.4511   -2.3123    4.6285 H   0  0  0  0  0  0  0  0  0  0  0  0
   -4.8050   -3.9594    4.5027 H   0  0  0  0  0  0  0  0  0  0  0  0
   -6.4412   -3.5908    3.8800 H   0  0  0  0  0  0  0  0  0  0  0  0
   -6.1993   -3.4347   -1.3656 H   0  0  0  0  0  0  0  0  0  0  0  0
   -5.4732   -1.8810   -1.8500 H   0  0  0  0  0  0  0  0  0  0  0  0
   -6.9236   -1.9120   -0.8045 H   0  0  0  0  0  0  0  0  0  0  0  0
    0.5417    2.4542   -1.8341 H   0  0  0  0  0  0  0  0  0  0  0  0
   -0.5246    2.3117   -3.2583 H   0  0  0  0  0  0  0  0  0  0  0  0
    1.1706    1.7747   -3.3672 H   0  0  0  0  0  0  0  0  0  0  0  0
   -1.5898   -3.0707   -4.3155 H   0  0  0  0  0  0  0  0  0  0  0  0
   -0.4676   -4.0404   -3.3310 H   0  0  0  0  0  0  0  0  0  0  0  0
    0.1625   -2.9321   -4.5858 H   0  0  0  0  0  0  0  0  0  0  0  0
   -2.0750    4.9568   -3.0338 C   0  0  0  0  0  0  0  0  0  0  0  0
   -2.4707    3.6555   -2.7178 O   0  0  0  0  0  0  0  0  0  0  0  0
   -2.6750    3.3403   -1.3962 C   0  0  0  0  0  3  0  0  0  0  0  0
   -3.0629    2.0301   -1.1216 C   0  0  0  0  0  3  0  0  0  0  0  0
   -3.3282    1.6263    0.1786 C   0  0  0  0  0  3  0  0  0  0  0  0
   -3.2004    2.5128    1.2545 C   0  0  0  0  0  3  0  0  0  0  0  0
   -3.6542    2.1060    2.6739 C   0  0  0  0  0  0  0  0  0  0  0  0
   -3.4009    0.6580    2.8669 N   0  0  0  0  0  4  0  0  0  0  0  0
   -5.1760    2.3859    2.7308 C   0  0  0  0  0  3  0  0  0  0  0  0
   -5.7971    3.2628    1.8382 C   0  0  0  0  0  3  0  0  0  0  0  0
   -7.1643    3.4933    1.8646 C   0  0  0  0  0  3  0  0  0  0  0  0
   -7.9690    2.8371    2.7999 C   0  0  0  0  0  3  0  0  0  0  0  0
   -9.3251    2.9897    2.9152 O   0  0  0  0  0  0  0  0  0  0  0  0
   -9.9729    3.8593    2.0373 C   0  0  0  0  0  0  0  0  0  0  0  0
   -7.3637    1.9542    3.6920 C   0  0  0  0  0  3  0  0  0  0  0  0
   -5.9992    1.7299    3.6549 C   0  0  0  0  0  3  0  0  0  0  0  0
   -2.7922    2.8184    3.7854 C   0  0  0  0  0  0  0  0  0  0  0  0
   -1.9118    1.8272    4.4119 N   0  0  0  0  0  4  0  0  0  0  0  0
   -3.5987    3.6068    4.8713 C   0  0  0  0  0  0  0  0  0  0  0  0
   -2.7047    3.9137    6.0932 C   0  0  0  0  0  0  0  0  0  0  0  0
   -4.1312    4.9296    4.3181 C   0  0  0  0  0  0  0  0  0  0  0  0
   -2.8179    3.8200    0.9602 C   0  0  0  0  0  3  0  0  0  0  0  0
   -2.5463    4.2346   -0.3352 C   0  0  0  0  0  3  0  0  0  0  0  0
   -1.9629    4.9825   -4.1268 H   0  0  0  0  0  0  0  0  0  0  0  0
   -1.1112    5.2171   -2.5690 H   0  0  0  0  0  0  0  0  0  0  0  0
   -2.8328    5.7014   -2.7362 H   0  0  0  0  0  0  0  0  0  0  0  0
   -3.1572    1.3343   -1.9417 H   0  0  0  0  0  0  0  0  0  0  0  0
   -3.6296    0.6019    0.3252 H   0  0  0  0  0  0  0  0  0  0  0  0
   -3.7878    0.3804    3.7816 H   0  0  0  0  0  0  0  0  0  0  0  0
   -3.9200    0.1170    2.1607 H   0  0  0  0  0  0  0  0  0  0  0  0
   -5.2176    3.7854    1.0969 H   0  0  0  0  0  0  0  0  0  0  0  0
   -7.5872    4.1824    1.1503 H   0  0  0  0  0  0  0  0  0  0  0  0
   -9.8576    3.5446    0.9868 H   0  0  0  0  0  0  0  0  0  0  0  0
   -9.6136    4.8943    2.1441 H   0  0  0  0  0  0  0  0  0  0  0  0
  -11.0379    3.8215    2.3060 H   0  0  0  0  0  0  0  0  0  0  0  0
   -7.9805    1.4421    4.4161 H   0  0  0  0  0  0  0  0  0  0  0  0
   -5.5909    1.0396    4.3754 H   0  0  0  0  0  0  0  0  0  0  0  0
   -2.1238    3.5384    3.2831 H   0  0  0  0  0  0  0  0  0  0  0  0
   -1.1316    2.3145    4.8760 H   0  0  0  0  0  0  0  0  0  0  0  0
   -2.4191    1.3360    5.1649 H   0  0  0  0  0  0  0  0  0  0  0  0
   -4.4448    2.9790    5.2028 H   0  0  0  0  0  0  0  0  0  0  0  0
   -1.7995    4.4424    5.7827 H   0  0  0  0  0  0  0  0  0  0  0  0
   -2.4245    3.0039    6.6394 H   0  0  0  0  0  0  0  0  0  0  0  0
   -3.2525    4.5630    6.7896 H   0  0  0  0  0  0  0  0  0  0  0  0
   -3.3021    5.5901    4.0489 H   0  0  0  0  0  0  0  0  0  0  0  0
   -4.7379    5.4393    5.0795 H   0  0  0  0  0  0  0  0  0  0  0  0
   -4.7602    4.7727    3.4335 H   0  0  0  0  0  0  0  0  0  0  0  0
   -2.7509    4.5530    1.7300 H   0  0  0  0  0  0  0  0  0  0  0  0
   -2.2537    5.2600   -0.5006 H   0  0  0  0  0  0  0  0  0  0  0  0
   -1.4427   -0.7168    4.5242 H   0  0  0  0  0  0  0  0  0  0  0  0
   -0.9391    1.3398    2.0223 H   0  0  0  0  0  0  0  0  0  0  0  0
    0.1408   -0.7134    6.4679 C   0  0  0  0  0  0  0  0  0  0  0  0
   -1.3612   -0.7320    6.2427 C   0  0  0  0  0  0  0  0  0  0  0  0
   -2.0383   -2.0708    6.4358 C   0  0  0  0  0  3  0  0  0  0  0  0
   -1.6780   -3.3889    6.4398 C   0  0  0  0  0  3  0  0  0  0  0  0
   -2.7996   -4.0917    6.8142 C   0  0  0  0  0  3  0  0  0  0  0  0
   -3.7819   -3.2134    7.0246 C   0  0  0  0  0  3  0  0  0  0  0  0
   -3.3173   -2.0027    6.7939 N   0  0  0  0  0  0  0  0  0  0  0  0
   -4.2471   -0.5189    6.8791 S   0  0  0  0  0  0  0  0  0  0  0  0
   -3.8183    0.4620    8.3337 C   0  0  0  0  0  3  0  0  0  0  0  0
   -4.2090    1.7831    8.3886 C   0  0  0  0  0  3  0  0  0  0  0  0
   -3.9585    2.5042    9.5430 C   0  0  0  0  0  3  0  0  0  0  0  0
   -3.3386    1.9094   10.6334 C   0  0  0  0  0  3  0  0  0  0  0  0
   -3.0936    2.6948   11.8878 C   0  0  0  0  0  0  0  0  0  0  0  0
   -2.9737    0.5636   10.5518 C   0  0  0  0  0  3  0  0  0  0  0  0
   -3.2128   -0.1653    9.4156 C   0  0  0  0  0  3  0  0  0  0  0  0
   -4.2811    0.1890    5.5442 O   0  0  0  0  0  0  0  0  0  0  0  0
   -5.6162   -1.0555    7.2266 O   0  0  0  0  0  0  0  0  0  0  0  0
   -2.0186    0.2491    6.6926 O   0  0  0  0  0  0  0  0  0  0  0  0
    0.6278   -1.5654    6.0315 H   0  0  0  0  0  0  0  0  0  0  0  0
    0.2940   -0.7224    7.5324 H   0  0  0  0  0  0  0  0  0  0  0  0
    0.5629    0.1913    6.0695 H   0  0  0  0  0  0  0  0  0  0  0  0
   -0.7099   -3.7848    6.2054 H   0  0  0  0  0  0  0  0  0  0  0  0
   -2.8708   -5.1562    6.9246 H   0  0  0  0  0  0  0  0  0  0  0  0
   -4.8031   -3.3474    7.3238 H   0  0  0  0  0  0  0  0  0  0  0  0
   -4.7004    2.2250    7.5442 H   0  0  0  0  0  0  0  0  0  0  0  0
   -4.2519    3.5342    9.5979 H   0  0  0  0  0  0  0  0  0  0  0  0
   -2.7604    3.6894   11.6516 H   0  0  0  0  0  0  0  0  0  0  0  0
   -4.0066    2.7738   12.4510 H   0  0  0  0  0  0  0  0  0  0  0  0
   -2.3555    2.2128   12.5033 H   0  0  0  0  0  0  0  0  0  0  0  0
   -2.5019    0.0964   11.3940 H   0  0  0  0  0  0  0  0  0  0  0  0
   -2.9353   -1.1986    9.3452 H   0  0  0  0  0  0  0  0  0  0  0  0
  1  2  1  0  0  0  0
  1 46  1  0  0  0  0
  1 56  1  0  0  0  0
  2  3  1  0  0  0  0
  2 50  1  0  0  0  0
  3  4  1  0  0  0  0
  3 57  1  0  0  0  0
  4  5  1  0  0  0  0
  4 45  1  0  0  0  0
  5  6  1  0  0  0  0
  5 12  1  0  0  0  0
  5 47  1  0  0  0  0
  6  7  1  0  0  0  0
  6 11  1  0  0  0  0
  7  8  1  0  0  0  0
  7 58  1  0  0  0  0
  8  9  1  0  0  0  0
  8 49  1  0  0  0  0
  9 10  1  0  0  0  0
  9 59  1  0  0  0  0
 10 11  1  0  0  0  0
 10 48  1  0  0  0  0
 11 60  1  0  0  0  0
 12 13  1  0  0  0  0
 12 44  1  0  0  0  0
 13 14  1  0  0  0  0
 13 37  1  0  0  0  0
 14 15  1  0  0  0  0
 14 36  1  0  0  0  0
 15 16  1  0  0  0  0
 15 29  1  0  0  0  0
 16 17  1  0  0  0  0
 16 23  1  0  0  0  0
 17 18  1  0  0  0  0
 17 22  1  0  0  0  0
 18 19  1  0  0  0  0
 18 61  1  0  0  0  0
 19 20  1  0  0  0  0
 19 54  1  0  0  0  0
 20 21  1  0  0  0  0
 20 62  1  0  0  0  0
 21 22  1  0  0  0  0
 21 55  1  0  0  0  0
 22 63  1  0  0  0  0
 23 24  1  0  0  0  0
 23 28  1  0  0  0  0
 24 25  1  0  0  0  0
 24 64  1  0  0  0  0
 25 26  1  0  0  0  0
 25 52  1  0  0  0  0
 26 27  1  0  0  0  0
 26 65  1  0  0  0  0
 27 28  1  0  0  0  0
 27 53  1  0  0  0  0
 28 66  1  0  0  0  0
 29 30  1  0  0  0  0
 29 67  1  0  0  0  0
 30 31  1  0  0  0  0
 30 68  1  0  0  0  0
 31 32  1  0  0  0  0
 31 36  1  0  0  0  0
 32 33  1  0  0  0  0
 32 69  1  0  0  0  0
 33 34  1  0  0  0  0
 33 70  1  0  0  0  0
 34 35  1  0  0  0  0
 34 71  1  0  0  0  0
 35 36  1  0  0  0  0
 35 72  1  0  0  0  0
 37 38  1  0  0  0  0
 37 42  1  0  0  0  0
 38 39  1  0  0  0  0
 38 73  1  0  0  0  0
 39 40  1  0  0  0  0
 39 74  1  0  0  0  0
 40 41  1  0  0  0  0
 40 75  1  0  0  0  0
 41 42  1  0  0  0  0
 41 76  1  0  0  0  0
 42 43  1  0  0  0  0
 43 44  1  0  0  0  0
 43 77  1  0  0  0  0
 44 78  1  0  0  0  0
 45 46  1  0  0  0  0
 45 79  1  0  0  0  0
 46 51  1  0  0  0  0
 47 16  1  0  0  0  0
 47121  1  0  0  0  0
 48 80  1  0  0  0  0
 48 81  1  0  0  0  0
 48 82  1  0  0  0  0
 49 83  1  0  0  0  0
 49 84  1  0  0  0  0
 49 85  1  0  0  0  0
 50 86  1  0  0  0  0
 50 87  1  0  0  0  0
 50 88  1  0  0  0  0
 51 89  1  0  0  0  0
 51 90  1  0  0  0  0
 51 91  1  0  0  0  0
 52 92  1  0  0  0  0
 52 93  1  0  0  0  0
 52 94  1  0  0  0  0
 53 95  1  0  0  0  0
 53 96  1  0  0  0  0
 53 97  1  0  0  0  0
 54 98  1  0  0  0  0
 54 99  1  0  0  0  0
 54100  1  0  0  0  0
 55101  1  0  0  0  0
 55102  1  0  0  0  0
 55103  1  0  0  0  0
104105  1  0  0  0  0
104127  1  0  0  0  0
104128  1  0  0  0  0
104129  1  0  0  0  0
105106  1  0  0  0  0
106107  1  0  0  0  0
106126  1  0  0  0  0
107108  1  0  0  0  0
107130  1  0  0  0  0
108109  1  0  0  0  0
108131  1  0  0  0  0
109110  1  0  0  0  0
109125  1  0  0  0  0
110111  1  0  0  0  0
110112  1  0  0  0  0
110120  1  0  0  0  0
111132  1  0  0  0  0
111133  1  0  0  0  0
111 47  1  0  0  0  0
112113  1  0  0  0  0
112119  1  0  0  0  0
113114  1  0  0  0  0
113134  1  0  0  0  0
114115  1  0  0  0  0
114135  1  0  0  0  0
115116  1  0  0  0  0
115118  1  0  0  0  0
116117  1  0  0  0  0
117136  1  0  0  0  0
117137  1  0  0  0  0
117138  1  0  0  0  0
118119  1  0  0  0  0
118139  1  0  0  0  0
119140  1  0  0  0  0
120121  1  0  0  0  0
120122  1  0  0  0  0
120141  1  0  0  0  0
121142  1  0  0  0  0
121143  1  0  0  0  0
122123  1  0  0  0  0
122124  1  0  0  0  0
122144  1  0  0  0  0
123145  1  0  0  0  0
123146  1  0  0  0  0
123147  1  0  0  0  0
124148  1  0  0  0  0
124149  1  0  0  0  0
124150  1  0  0  0  0
125126  1  0  0  0  0
125151  1  0  0  0  0
126152  1  0  0  0  0
153 47  1  0  0  0  0
154 47  1  0  0  0  0
155156  1  0  0  0  0
155173  1  0  0  0  0
155174  1  0  0  0  0
155175  1  0  0  0  0
156157  1  0  0  0  0
156172  2  0  0  0  0
156153  1  0  0  0  0
157158  1  0  0  0  0
157161  1  0  0  0  0
158159  1  0  0  0  0
158176  1  0  0  0  0
159160  1  0  0  0  0
159177  1  0  0  0  0
160161  1  0  0  0  0
160178  1  0  0  0  0
161162  1  0  0  0  0
162163  1  0  0  0  0
162170  2  0  0  0  0
162171  2  0  0  0  0
163164  1  0  0  0  0
163169  1  0  0  0  0
164165  1  0  0  0  0
164179  1  0  0  0  0
165166  1  0  0  0  0
165180  1  0  0  0  0
166167  1  0  0  0  0
166168  1  0  0  0  0
167181  1  0  0  0  0
167182  1  0  0  0  0
167183  1  0  0  0  0
168169  1  0  0  0  0
168184  1  0  0  0  0
169185  1  0  0  0  0
172143  1  0  0  0  0
M  END
