 energy: -270.473282729456 gnorm: 0.000952448044 xtb: 6.7.1 (edcfbbe)
          07072521323D

189204  0     0  0            999 V2000
    2.1170    3.1494   -0.2032 C   0  0  0  0  0  3  0  0  0  0  0  0
    2.6695    3.3356    1.1138 C   0  0  0  0  0  3  0  0  0  0  0  0
    2.6728    2.2245    2.0378 C   0  0  0  0  0  3  0  0  0  0  0  0
    2.1567    0.9403    1.6508 C   0  0  0  0  0  3  0  0  0  0  0  0
    1.8014   -0.3814    2.8650 P   0  0  0  0  0  4  0  0  0  0  0  0
    3.0075    0.0701    4.2025 C   0  0  0  0  0  3  0  0  0  0  0  0
    2.6231    1.1527    5.0644 C   0  0  0  0  0  3  0  0  0  0  0  0
    3.5053    1.6092    6.1095 C   0  0  0  0  0  3  0  0  0  0  0  0
    4.7523    0.9245    6.3053 C   0  0  0  0  0  3  0  0  0  0  0  0
    5.1406   -0.1797    5.4812 C   0  0  0  0  0  3  0  0  0  0  0  0
    4.2769   -0.5963    4.4060 C   0  0  0  0  0  3  0  0  0  0  0  0
    2.5664   -1.9002    2.0822 C   0  0  0  0  0  3  0  0  0  0  0  0
    2.2772   -3.2373    2.5889 C   0  0  0  0  0  3  0  0  0  0  0  0
    1.5056   -3.5204    3.8469 C   0  0  0  0  0  3  0  0  0  0  0  0
    0.0574   -3.5070    3.9105 C   0  0  0  0  0  3  0  0  0  0  0  0
   -0.9137   -2.5731    2.6768 P   0  0  0  0  0  4  0  0  0  0  0  0
   -0.3975   -3.3847    1.1069 C   0  0  0  0  0  3  0  0  0  0  0  0
   -0.3408   -2.5865   -0.0767 C   0  0  0  0  0  3  0  0  0  0  0  0
    0.0254   -3.1705   -1.3385 C   0  0  0  0  0  3  0  0  0  0  0  0
    0.3119   -4.5772   -1.3860 C   0  0  0  0  0  3  0  0  0  0  0  0
    0.2291   -5.4031   -0.2122 C   0  0  0  0  0  3  0  0  0  0  0  0
   -0.1241   -4.7975    1.0401 C   0  0  0  0  0  3  0  0  0  0  0  0
   -2.6386   -3.2008    2.8323 C   0  0  0  0  0  3  0  0  0  0  0  0
   -3.4652   -2.5466    3.8181 C   0  0  0  0  0  3  0  0  0  0  0  0
   -4.8738   -2.8165    3.8937 C   0  0  0  0  0  3  0  0  0  0  0  0
   -5.4469   -3.7547    2.9716 C   0  0  0  0  0  3  0  0  0  0  0  0
   -4.6450   -4.4161    1.9831 C   0  0  0  0  0  3  0  0  0  0  0  0
   -3.2399   -4.1254    1.9118 C   0  0  0  0  0  3  0  0  0  0  0  0
   -0.6101   -3.9920    5.1016 C   0  0  0  0  0  3  0  0  0  0  0  0
    0.1244   -4.4645    6.2232 C   0  0  0  0  0  3  0  0  0  0  0  0
    1.5745   -4.4247    6.2199 C   0  0  0  0  0  3  0  0  0  0  0  0
    2.3370   -4.8208    7.3931 C   0  0  0  0  0  3  0  0  0  0  0  0
    3.7539   -4.7994    7.3712 C   0  0  0  0  0  3  0  0  0  0  0  0
    4.4496   -4.4021    6.1716 C   0  0  0  0  0  3  0  0  0  0  0  0
    3.7308   -4.0026    5.0167 C   0  0  0  0  0  3  0  0  0  0  0  0
    2.2744   -3.9897    5.0183 C   0  0  0  0  0  3  0  0  0  0  0  0
    2.8828   -4.4011    1.9122 C   0  0  0  0  0  3  0  0  0  0  0  0
    2.6636   -5.7556    2.3983 C   0  0  0  0  0  3  0  0  0  0  0  0
    3.2576   -6.8657    1.7438 C   0  0  0  0  0  3  0  0  0  0  0  0
    4.0763   -6.6739    0.5694 C   0  0  0  0  0  3  0  0  0  0  0  0
    4.2960   -5.3662    0.0677 C   0  0  0  0  0  3  0  0  0  0  0  0
    3.7129   -4.2115    0.7321 C   0  0  0  0  0  3  0  0  0  0  0  0
    3.9833   -2.8681    0.2561 C   0  0  0  0  0  3  0  0  0  0  0  0
    3.4320   -1.7430    0.9247 C   0  0  0  0  0  3  0  0  0  0  0  0
    1.6373    0.7711    0.3176 C   0  0  0  0  0  3  0  0  0  0  0  0
    1.6045    1.8699   -0.6164 C   0  0  0  0  0  3  0  0  0  0  0  0
   -0.7538   -0.1182    3.0678 Ru  0  0  0  0  0  0  0  0  0  0  0  0
    6.4305   -0.9125    5.7270 C   0  0  0  0  0  0  0  0  0  0  0  0
    3.1258    2.7892    6.9640 C   0  0  0  0  0  0  0  0  0  0  0  0
    3.2408    4.6684    1.5244 C   0  0  0  0  0  0  0  0  0  0  0  0
    1.0166    1.6674   -1.9886 C   0  0  0  0  0  0  0  0  0  0  0  0
   -5.7419   -2.1222    4.9109 C   0  0  0  0  0  0  0  0  0  0  0  0
   -5.2700   -5.4008    1.0318 C   0  0  0  0  0  0  0  0  0  0  0  0
    0.0862   -2.3162   -2.5739 C   0  0  0  0  0  0  0  0  0  0  0  0
    0.4994   -6.8812   -0.3137 C   0  0  0  0  0  0  0  0  0  0  0  0
    2.0893    3.9918   -0.8945 H   0  0  0  0  0  0  0  0  0  0  0  0
    3.0862    2.3712    3.0348 H   0  0  0  0  0  0  0  0  0  0  0  0
    1.6532    1.6048    4.9461 H   0  0  0  0  0  0  0  0  0  0  0  0
    5.4098    1.2458    7.1138 H   0  0  0  0  0  0  0  0  0  0  0  0
    4.5696   -1.4138    3.7507 H   0  0  0  0  0  0  0  0  0  0  0  0
   -0.5875   -1.5280    0.0049 H   0  0  0  0  0  0  0  0  0  0  0  0
    0.5893   -5.0369   -2.3351 H   0  0  0  0  0  0  0  0  0  0  0  0
   -0.1902   -5.4036    1.9422 H   0  0  0  0  0  0  0  0  0  0  0  0
   -3.0008   -1.8405    4.5028 H   0  0  0  0  0  0  0  0  0  0  0  0
   -6.5184   -3.9587    3.0148 H   0  0  0  0  0  0  0  0  0  0  0  0
   -2.6305   -4.6034    1.1473 H   0  0  0  0  0  0  0  0  0  0  0  0
   -1.6988   -3.9985    5.1218 H   0  0  0  0  0  0  0  0  0  0  0  0
   -0.3970   -4.8416    7.1034 H   0  0  0  0  0  0  0  0  0  0  0  0
    1.8007   -5.1271    8.2913 H   0  0  0  0  0  0  0  0  0  0  0  0
    4.3216   -5.0882    8.2562 H   0  0  0  0  0  0  0  0  0  0  0  0
    5.5398   -4.4146    6.1554 H   0  0  0  0  0  0  0  0  0  0  0  0
    4.2660   -3.7109    4.1143 H   0  0  0  0  0  0  0  0  0  0  0  0
    2.0482   -5.9137    3.2822 H   0  0  0  0  0  0  0  0  0  0  0  0
    3.0930   -7.8736    2.1251 H   0  0  0  0  0  0  0  0  0  0  0  0
    4.5229   -7.5359    0.0745 H   0  0  0  0  0  0  0  0  0  0  0  0
    4.9128   -5.2077   -0.8173 H   0  0  0  0  0  0  0  0  0  0  0  0
    4.6308   -2.7285   -0.6101 H   0  0  0  0  0  0  0  0  0  0  0  0
    3.6698   -0.7422    0.5810 H   0  0  0  0  0  0  0  0  0  0  0  0
    1.2415   -0.2006    0.0249 H   0  0  0  0  0  0  0  0  0  0  0  0
    6.2159   -1.9499    6.0187 H   0  0  0  0  0  0  0  0  0  0  0  0
    7.0064   -0.4330    6.5301 H   0  0  0  0  0  0  0  0  0  0  0  0
    7.0423   -0.9366    4.8152 H   0  0  0  0  0  0  0  0  0  0  0  0
    2.0342    2.9045    6.9968 H   0  0  0  0  0  0  0  0  0  0  0  0
    3.5572    3.7103    6.5484 H   0  0  0  0  0  0  0  0  0  0  0  0
    3.5088    2.6674    7.9871 H   0  0  0  0  0  0  0  0  0  0  0  0
    2.6801    5.4941    1.0655 H   0  0  0  0  0  0  0  0  0  0  0  0
    4.2868    4.7458    1.1948 H   0  0  0  0  0  0  0  0  0  0  0  0
    3.2197    4.7832    2.6169 H   0  0  0  0  0  0  0  0  0  0  0  0
    1.6986    1.0731   -2.6128 H   0  0  0  0  0  0  0  0  0  0  0  0
    0.8427    2.6311   -2.4865 H   0  0  0  0  0  0  0  0  0  0  0  0
    0.0642    1.1265   -1.9060 H   0  0  0  0  0  0  0  0  0  0  0  0
   -5.2534   -1.2110    5.2816 H   0  0  0  0  0  0  0  0  0  0  0  0
   -5.9179   -2.7840    5.7715 H   0  0  0  0  0  0  0  0  0  0  0  0
   -6.7160   -1.8607    4.4765 H   0  0  0  0  0  0  0  0  0  0  0  0
   -5.4185   -6.3677    1.5332 H   0  0  0  0  0  0  0  0  0  0  0  0
   -4.6227   -5.5605    0.1591 H   0  0  0  0  0  0  0  0  0  0  0  0
   -6.2508   -5.0426    0.6899 H   0  0  0  0  0  0  0  0  0  0  0  0
    0.7815   -1.4795   -2.4210 H   0  0  0  0  0  0  0  0  0  0  0  0
   -0.9071   -1.8984   -2.7889 H   0  0  0  0  0  0  0  0  0  0  0  0
    0.4203   -2.9007   -3.4419 H   0  0  0  0  0  0  0  0  0  0  0  0
   -0.1724   -7.3447   -1.0501 H   0  0  0  0  0  0  0  0  0  0  0  0
    0.3531   -7.3707    0.6585 H   0  0  0  0  0  0  0  0  0  0  0  0
    1.5343   -7.0541   -0.6384 H   0  0  0  0  0  0  0  0  0  0  0  0
   -2.7260    0.2550   -4.1362 C   0  0  0  0  0  0  0  0  0  0  0  0
   -3.0114   -0.5070   -3.0013 O   0  0  0  0  0  0  0  0  0  0  0  0
   -2.9903    0.1146   -1.7759 C   0  0  0  0  0  3  0  0  0  0  0  0
   -3.3012   -0.6793   -0.6731 C   0  0  0  0  0  3  0  0  0  0  0  0
   -3.2862   -0.1513    0.6094 C   0  0  0  0  0  3  0  0  0  0  0  0
   -2.9349    1.1855    0.8340 C   0  0  0  0  0  3  0  0  0  0  0  0
   -2.8877    1.7917    2.2545 C   0  0  0  0  0  0  0  0  0  0  0  0
   -2.7640    0.6813    3.2294 N   0  0  0  0  0  4  0  0  0  0  0  0
   -4.2206    2.5290    2.5278 C   0  0  0  0  0  3  0  0  0  0  0  0
   -5.1313    2.8176    1.5094 C   0  0  0  0  0  3  0  0  0  0  0  0
   -6.3331    3.4596    1.7668 C   0  0  0  0  0  3  0  0  0  0  0  0
   -6.6607    3.8314    3.0735 C   0  0  0  0  0  3  0  0  0  0  0  0
   -7.8134    4.4733    3.4412 O   0  0  0  0  0  0  0  0  0  0  0  0
   -8.7380    4.7970    2.4476 C   0  0  0  0  0  0  0  0  0  0  0  0
   -5.7673    3.5303    4.1000 C   0  0  0  0  0  3  0  0  0  0  0  0
   -4.5722    2.8852    3.8362 C   0  0  0  0  0  3  0  0  0  0  0  0
   -1.5978    2.6854    2.4171 C   0  0  0  0  0  0  0  0  0  0  0  0
   -0.6447    2.0023    3.2980 N   0  0  0  0  0  4  0  0  0  0  0  0
   -1.8271    4.1634    2.8813 C   0  0  0  0  0  0  0  0  0  0  0  0
   -0.4946    4.7936    3.3432 C   0  0  0  0  0  0  0  0  0  0  0  0
   -2.4050    5.0198    1.7536 C   0  0  0  0  0  0  0  0  0  0  0  0
   -2.6644    1.9750   -0.2816 C   0  0  0  0  0  3  0  0  0  0  0  0
   -2.6883    1.4595   -1.5692 C   0  0  0  0  0  3  0  0  0  0  0  0
   -2.8061   -0.4330   -4.9896 H   0  0  0  0  0  0  0  0  0  0  0  0
   -1.7072    0.6717   -4.1070 H   0  0  0  0  0  0  0  0  0  0  0  0
   -3.4489    1.0774   -4.2716 H   0  0  0  0  0  0  0  0  0  0  0  0
   -3.5384   -1.7209   -0.8297 H   0  0  0  0  0  0  0  0  0  0  0  0
   -3.5180   -0.8265    1.4175 H   0  0  0  0  0  0  0  0  0  0  0  0
   -2.7709    1.0686    4.1852 H   0  0  0  0  0  0  0  0  0  0  0  0
   -3.5954    0.0772    3.1559 H   0  0  0  0  0  0  0  0  0  0  0  0
   -4.9092    2.5389    0.4938 H   0  0  0  0  0  0  0  0  0  0  0  0
   -7.0016    3.6616    0.9446 H   0  0  0  0  0  0  0  0  0  0  0  0
   -9.1248    3.8992    1.9374 H   0  0  0  0  0  0  0  0  0  0  0  0
   -8.3124    5.4815    1.6980 H   0  0  0  0  0  0  0  0  0  0  0  0
   -9.5689    5.3010    2.9605 H   0  0  0  0  0  0  0  0  0  0  0  0
   -6.0335    3.8149    5.1077 H   0  0  0  0  0  0  0  0  0  0  0  0
   -3.9193    2.6592    4.6646 H   0  0  0  0  0  0  0  0  0  0  0  0
   -1.1057    2.7263    1.4304 H   0  0  0  0  0  0  0  0  0  0  0  0
    0.3031    2.3517    3.0962 H   0  0  0  0  0  0  0  0  0  0  0  0
   -0.8528    2.2119    4.2872 H   0  0  0  0  0  0  0  0  0  0  0  0
   -2.5249    4.1779    3.7373 H   0  0  0  0  0  0  0  0  0  0  0  0
    0.2763    4.6737    2.5777 H   0  0  0  0  0  0  0  0  0  0  0  0
   -0.1427    4.3556    4.2863 H   0  0  0  0  0  0  0  0  0  0  0  0
   -0.6432    5.8681    3.5159 H   0  0  0  0  0  0  0  0  0  0  0  0
   -1.6944    5.0818    0.9244 H   0  0  0  0  0  0  0  0  0  0  0  0
   -2.5959    6.0394    2.1162 H   0  0  0  0  0  0  0  0  0  0  0  0
   -3.3529    4.6111    1.3828 H   0  0  0  0  0  0  0  0  0  0  0  0
   -2.4306    3.0075   -0.1657 H   0  0  0  0  0  0  0  0  0  0  0  0
   -2.4650    2.1166   -2.3954 H   0  0  0  0  0  0  0  0  0  0  0  0
   -0.8746   -0.3238    4.7903 H   0  0  0  0  0  0  0  0  0  0  0  0
   -0.7100    0.1174    1.5299 H   0  0  0  0  0  0  0  0  0  0  0  0
   -1.1386    1.6791    6.1058 O   0  0  0  0  0  0  0  0  0  0  0  0
   -0.9744    0.4484    6.3227 C   0  0  0  0  0  0  0  0  0  0  0  0
    0.3574   -0.0558    6.8413 C   0  0  0  0  0  3  0  0  0  0  0  0
    0.9890    0.4085    7.9570 C   0  0  0  0  0  3  0  0  0  0  0  0
    2.1119   -0.3504    8.0852 N   0  0  0  0  0  0  0  0  0  0  0  0
    3.1973   -0.2472    9.0536 C   0  0  0  0  0  3  0  0  0  0  0  0
    4.2592   -1.1233    8.8961 C   0  0  0  0  0  3  0  0  0  0  0  0
    5.3370   -1.0314    9.7932 C   0  0  0  0  0  3  0  0  0  0  0  0
    5.3218   -0.1133   10.7728 C   0  0  0  0  0  3  0  0  0  0  0  0
    4.2536    0.7401   10.9130 C   0  0  0  0  0  3  0  0  0  0  0  0
    3.1864    0.6677   10.0443 C   0  0  0  0  0  3  0  0  0  0  0  0
    2.1886   -1.2388    7.1174 N   0  0  0  0  0  2  0  0  0  0  0  0
    1.1353   -1.0486    6.3800 C   0  0  0  0  0  3  0  0  0  0  0  0
   -2.1184   -0.3971    6.8522 C   0  0  0  0  0  3  0  0  0  0  0  0
   -1.8736   -1.7099    7.2241 C   0  0  0  0  0  3  0  0  0  0  0  0
   -2.8749   -2.4859    7.8319 C   0  0  0  0  0  3  0  0  0  0  0  0
   -4.0751   -1.9386    8.0754 C   0  0  0  0  0  3  0  0  0  0  0  0
   -4.3302   -0.6419    7.7028 C   0  0  0  0  0  3  0  0  0  0  0  0
   -3.3535    0.1105    7.0788 C   0  0  0  0  0  3  0  0  0  0  0  0
   -3.6314    1.4262    6.6458 O   0  0  0  0  0  0  0  0  0  0  0  0
   -4.6829    2.1187    7.2980 C   0  0  0  0  0  0  0  0  0  0  0  0
    0.7214    1.1862    8.6433 H   0  0  0  0  0  0  0  0  0  0  0  0
    4.2348   -1.8396    8.0993 H   0  0  0  0  0  0  0  0  0  0  0  0
    6.1632   -1.7049    9.6737 H   0  0  0  0  0  0  0  0  0  0  0  0
    6.1441   -0.0368   11.4580 H   0  0  0  0  0  0  0  0  0  0  0  0
    4.2464    1.4693   11.6999 H   0  0  0  0  0  0  0  0  0  0  0  0
    2.3615    1.3418   10.1694 H   0  0  0  0  0  0  0  0  0  0  0  0
    0.9866   -1.6446    5.5015 H   0  0  0  0  0  0  0  0  0  0  0  0
   -0.9113   -2.1460    7.0444 H   0  0  0  0  0  0  0  0  0  0  0  0
   -2.6529   -3.4996    8.1033 H   0  0  0  0  0  0  0  0  0  0  0  0
   -4.8509   -2.5014    8.5582 H   0  0  0  0  0  0  0  0  0  0  0  0
   -5.2989   -0.2234    7.8926 H   0  0  0  0  0  0  0  0  0  0  0  0
   -5.6446    1.8097    6.9270 H   0  0  0  0  0  0  0  0  0  0  0  0
   -4.6381    1.9811    8.3641 H   0  0  0  0  0  0  0  0  0  0  0  0
   -4.5260    3.1575    7.0684 H   0  0  0  0  0  0  0  0  0  0  0  0
  1  2  1  0  0  0  0
  1 46  1  0  0  0  0
  1 56  1  0  0  0  0
  2  3  1  0  0  0  0
  2 50  1  0  0  0  0
  3  4  1  0  0  0  0
  3 57  1  0  0  0  0
  4  5  1  0  0  0  0
  4 45  1  0  0  0  0
  5  6  1  0  0  0  0
  5 12  1  0  0  0  0
  5 47  1  0  0  0  0
  6  7  1  0  0  0  0
  6 11  1  0  0  0  0
  7  8  1  0  0  0  0
  7 58  1  0  0  0  0
  8  9  1  0  0  0  0
  8 49  1  0  0  0  0
  9 10  1  0  0  0  0
  9 59  1  0  0  0  0
 10 11  1  0  0  0  0
 10 48  1  0  0  0  0
 11 60  1  0  0  0  0
 12 13  1  0  0  0  0
 12 44  1  0  0  0  0
 13 14  1  0  0  0  0
 13 37  1  0  0  0  0
 14 15  1  0  0  0  0
 14 36  1  0  0  0  0
 15 16  1  0  0  0  0
 15 29  1  0  0  0  0
 16 17  1  0  0  0  0
 16 23  1  0  0  0  0
 17 18  1  0  0  0  0
 17 22  1  0  0  0  0
 18 19  1  0  0  0  0
 18 61  1  0  0  0  0
 19 20  1  0  0  0  0
 19 54  1  0  0  0  0
 20 21  1  0  0  0  0
 20 62  1  0  0  0  0
 21 22  1  0  0  0  0
 21 55  1  0  0  0  0
 22 63  1  0  0  0  0
 23 24  1  0  0  0  0
 23 28  1  0  0  0  0
 24 25  1  0  0  0  0
 24 64  1  0  0  0  0
 25 26  1  0  0  0  0
 25 52  1  0  0  0  0
 26 27  1  0  0  0  0
 26 65  1  0  0  0  0
 27 28  1  0  0  0  0
 27 53  1  0  0  0  0
 28 66  1  0  0  0  0
 29 30  1  0  0  0  0
 29 67  1  0  0  0  0
 30 31  1  0  0  0  0
 30 68  1  0  0  0  0
 31 32  1  0  0  0  0
 31 36  1  0  0  0  0
 32 33  1  0  0  0  0
 32 69  1  0  0  0  0
 33 34  1  0  0  0  0
 33 70  1  0  0  0  0
 34 35  1  0  0  0  0
 34 71  1  0  0  0  0
 35 36  1  0  0  0  0
 35 72  1  0  0  0  0
 37 38  1  0  0  0  0
 37 42  1  0  0  0  0
 38 39  1  0  0  0  0
 38 73  1  0  0  0  0
 39 40  1  0  0  0  0
 39 74  1  0  0  0  0
 40 41  1  0  0  0  0
 40 75  1  0  0  0  0
 41 42  1  0  0  0  0
 41 76  1  0  0  0  0
 42 43  1  0  0  0  0
 43 44  1  0  0  0  0
 43 77  1  0  0  0  0
 44 78  1  0  0  0  0
 45 46  1  0  0  0  0
 45 79  1  0  0  0  0
 46 51  1  0  0  0  0
 47 16  1  0  0  0  0
 47121  1  0  0  0  0
 48 80  1  0  0  0  0
 48 81  1  0  0  0  0
 48 82  1  0  0  0  0
 49 83  1  0  0  0  0
 49 84  1  0  0  0  0
 49 85  1  0  0  0  0
 50 86  1  0  0  0  0
 50 87  1  0  0  0  0
 50 88  1  0  0  0  0
 51 89  1  0  0  0  0
 51 90  1  0  0  0  0
 51 91  1  0  0  0  0
 52 92  1  0  0  0  0
 52 93  1  0  0  0  0
 52 94  1  0  0  0  0
 53 95  1  0  0  0  0
 53 96  1  0  0  0  0
 53 97  1  0  0  0  0
 54 98  1  0  0  0  0
 54 99  1  0  0  0  0
 54100  1  0  0  0  0
 55101  1  0  0  0  0
 55102  1  0  0  0  0
 55103  1  0  0  0  0
104105  1  0  0  0  0
104127  1  0  0  0  0
104128  1  0  0  0  0
104129  1  0  0  0  0
105106  1  0  0  0  0
106107  1  0  0  0  0
106126  1  0  0  0  0
107108  1  0  0  0  0
107130  1  0  0  0  0
108109  1  0  0  0  0
108131  1  0  0  0  0
109110  1  0  0  0  0
109125  1  0  0  0  0
110111  1  0  0  0  0
110112  1  0  0  0  0
110120  1  0  0  0  0
111132  1  0  0  0  0
111133  1  0  0  0  0
111 47  1  0  0  0  0
112113  1  0  0  0  0
112119  1  0  0  0  0
113114  1  0  0  0  0
113134  1  0  0  0  0
114115  1  0  0  0  0
114135  1  0  0  0  0
115116  1  0  0  0  0
115118  1  0  0  0  0
116117  1  0  0  0  0
117136  1  0  0  0  0
117137  1  0  0  0  0
117138  1  0  0  0  0
118119  1  0  0  0  0
118139  1  0  0  0  0
119140  1  0  0  0  0
120121  1  0  0  0  0
120122  1  0  0  0  0
120141  1  0  0  0  0
121142  1  0  0  0  0
121143  1  0  0  0  0
122123  1  0  0  0  0
122124  1  0  0  0  0
122144  1  0  0  0  0
123145  1  0  0  0  0
123146  1  0  0  0  0
123147  1  0  0  0  0
124148  1  0  0  0  0
124149  1  0  0  0  0
124150  1  0  0  0  0
125126  1  0  0  0  0
125151  1  0  0  0  0
126152  1  0  0  0  0
153 47  1  0  0  0  0
154 47  1  0  0  0  0
155156  2  0  0  0  0
155143  1  0  0  0  0
156157  1  0  0  0  0
156168  1  0  0  0  0
156153  1  0  0  0  0
157158  1  0  0  0  0
157167  1  0  0  0  0
158159  1  0  0  0  0
158176  1  0  0  0  0
159160  1  0  0  0  0
159166  1  0  0  0  0
160161  1  0  0  0  0
160165  1  0  0  0  0
161162  1  0  0  0  0
161177  1  0  0  0  0
162163  1  0  0  0  0
162178  1  0  0  0  0
163164  1  0  0  0  0
163179  1  0  0  0  0
164165  1  0  0  0  0
164180  1  0  0  0  0
165181  1  0  0  0  0
166167  1  0  0  0  0
167182  1  0  0  0  0
168169  1  0  0  0  0
168173  1  0  0  0  0
169170  1  0  0  0  0
169183  1  0  0  0  0
170171  1  0  0  0  0
170184  1  0  0  0  0
171172  1  0  0  0  0
171185  1  0  0  0  0
172173  1  0  0  0  0
172186  1  0  0  0  0
173174  1  0  0  0  0
174175  1  0  0  0  0
175187  1  0  0  0  0
175188  1  0  0  0  0
175189  1  0  0  0  0
M  END
