 energy: -213.947342599471 gnorm: 0.000963745465 xtb: 6.7.1 (edcfbbe)
          07072520283D

155167  0     0  0            999 V2000
    1.3957    4.6098   -0.3501 C   0  0  0  0  0  3  0  0  0  0  0  0
    2.4055    4.4242    0.5873 C   0  0  0  0  0  3  0  0  0  0  0  0
    2.5141    3.1989    1.2349 C   0  0  0  0  0  3  0  0  0  0  0  0
    1.6321    2.1600    0.9513 C   0  0  0  0  0  3  0  0  0  0  0  0
    1.5882    0.5797    1.9060 P   0  0  0  0  0  4  0  0  0  0  0  0
    3.2626    0.7140    2.6658 C   0  0  0  0  0  3  0  0  0  0  0  0
    3.3576    1.2934    3.9223 C   0  0  0  0  0  3  0  0  0  0  0  0
    4.5862    1.4540    4.5550 C   0  0  0  0  0  3  0  0  0  0  0  0
    5.7288    1.0310    3.8908 C   0  0  0  0  0  3  0  0  0  0  0  0
    5.6647    0.4839    2.6119 C   0  0  0  0  0  3  0  0  0  0  0  0
    4.4278    0.3341    2.0022 C   0  0  0  0  0  3  0  0  0  0  0  0
    1.9590   -0.6858    0.6148 C   0  0  0  0  0  3  0  0  0  0  0  0
    2.0957   -2.0196    0.9659 C   0  0  0  0  0  3  0  0  0  0  0  0
    2.0853   -2.5301    2.3641 C   0  0  0  0  0  3  0  0  0  0  0  0
    0.9102   -2.6797    3.0852 C   0  0  0  0  0  3  0  0  0  0  0  0
   -0.5922   -1.7611    2.5373 P   0  0  0  0  0  4  0  0  0  0  0  0
   -0.7369   -2.4714    0.8434 C   0  0  0  0  0  3  0  0  0  0  0  0
   -0.9610   -1.6533   -0.2532 C   0  0  0  0  0  3  0  0  0  0  0  0
   -1.0489   -2.1881   -1.5340 C   0  0  0  0  0  3  0  0  0  0  0  0
   -0.9461   -3.5629   -1.6908 C   0  0  0  0  0  3  0  0  0  0  0  0
   -0.7558   -4.4067   -0.5995 C   0  0  0  0  0  3  0  0  0  0  0  0
   -0.6371   -3.8510    0.6657 C   0  0  0  0  0  3  0  0  0  0  0  0
   -1.9955   -2.6397    3.3505 C   0  0  0  0  0  3  0  0  0  0  0  0
   -2.1382   -2.4584    4.7272 C   0  0  0  0  0  3  0  0  0  0  0  0
   -3.2387   -2.9622    5.4078 C   0  0  0  0  0  3  0  0  0  0  0  0
   -4.2097   -3.6539    4.6910 C   0  0  0  0  0  3  0  0  0  0  0  0
   -4.1006   -3.8244    3.3169 C   0  0  0  0  0  3  0  0  0  0  0  0
   -2.9969   -3.3032    2.6506 C   0  0  0  0  0  3  0  0  0  0  0  0
    0.9015   -3.4479    4.2669 C   0  0  0  0  0  3  0  0  0  0  0  0
    2.0406   -4.0384    4.7330 C   0  0  0  0  0  3  0  0  0  0  0  0
    3.2762   -3.8271    4.0841 C   0  0  0  0  0  3  0  0  0  0  0  0
    4.4802   -4.3674    4.5897 C   0  0  0  0  0  3  0  0  0  0  0  0
    5.6658   -4.1736    3.9365 C   0  0  0  0  0  3  0  0  0  0  0  0
    5.6920   -3.4441    2.7366 C   0  0  0  0  0  3  0  0  0  0  0  0
    4.5420   -2.9145    2.2188 C   0  0  0  0  0  3  0  0  0  0  0  0
    3.3006   -3.0754    2.8800 C   0  0  0  0  0  3  0  0  0  0  0  0
    2.3124   -3.0001   -0.0512 C   0  0  0  0  0  3  0  0  0  0  0  0
    2.4214   -4.3824    0.2354 C   0  0  0  0  0  3  0  0  0  0  0  0
    2.6268   -5.2986   -0.7594 C   0  0  0  0  0  3  0  0  0  0  0  0
    2.7179   -4.8924   -2.1008 C   0  0  0  0  0  3  0  0  0  0  0  0
    2.5992   -3.5677   -2.4175 C   0  0  0  0  0  3  0  0  0  0  0  0
    2.3984   -2.5975   -1.4097 C   0  0  0  0  0  3  0  0  0  0  0  0
    2.2997   -1.2247   -1.7209 C   0  0  0  0  0  3  0  0  0  0  0  0
    2.0842   -0.3035   -0.7364 C   0  0  0  0  0  3  0  0  0  0  0  0
    0.6251    2.3755    0.0117 C   0  0  0  0  0  3  0  0  0  0  0  0
    0.4997    3.5905   -0.6495 C   0  0  0  0  0  3  0  0  0  0  0  0
   -0.4354    0.4902    3.0160 Ru  0  0  0  0  0  0  0  0  0  0  0  0
    6.9286    0.0724    1.9110 C   0  0  0  0  0  0  0  0  0  0  0  0
    4.6578    2.0468    5.9338 C   0  0  0  0  0  0  0  0  0  0  0  0
    3.3567    5.5454    0.8999 C   0  0  0  0  0  0  0  0  0  0  0  0
   -0.5826    3.7984   -1.6720 C   0  0  0  0  0  0  0  0  0  0  0  0
   -3.3628   -2.7339    6.8879 C   0  0  0  0  0  0  0  0  0  0  0  0
   -5.1609   -4.5705    2.5565 C   0  0  0  0  0  0  0  0  0  0  0  0
   -1.2526   -1.2796   -2.7134 C   0  0  0  0  0  0  0  0  0  0  0  0
   -0.7029   -5.8953   -0.7987 C   0  0  0  0  0  0  0  0  0  0  0  0
    1.3059    5.5652   -0.8529 H   0  0  0  0  0  0  0  0  0  0  0  0
    3.3059    3.0575    1.9592 H   0  0  0  0  0  0  0  0  0  0  0  0
    2.4488    1.6276    4.4070 H   0  0  0  0  0  0  0  0  0  0  0  0
    6.6944    1.1391    4.3704 H   0  0  0  0  0  0  0  0  0  0  0  0
    4.3640   -0.0627    0.9963 H   0  0  0  0  0  0  0  0  0  0  0  0
   -1.0525   -0.5880   -0.0876 H   0  0  0  0  0  0  0  0  0  0  0  0
   -1.0170   -3.9946   -2.6821 H   0  0  0  0  0  0  0  0  0  0  0  0
   -0.4708   -4.4877    1.5268 H   0  0  0  0  0  0  0  0  0  0  0  0
   -1.3927   -1.8954    5.2750 H   0  0  0  0  0  0  0  0  0  0  0  0
   -5.0749   -4.0495    5.2093 H   0  0  0  0  0  0  0  0  0  0  0  0
   -2.9272   -3.4150    1.5767 H   0  0  0  0  0  0  0  0  0  0  0  0
   -0.0346   -3.6063    4.7847 H   0  0  0  0  0  0  0  0  0  0  0  0
    2.0111   -4.6699    5.6124 H   0  0  0  0  0  0  0  0  0  0  0  0
    4.4420   -4.9343    5.5120 H   0  0  0  0  0  0  0  0  0  0  0  0
    6.5859   -4.5848    4.3327 H   0  0  0  0  0  0  0  0  0  0  0  0
    6.6329   -3.3091    2.2177 H   0  0  0  0  0  0  0  0  0  0  0  0
    4.5720   -2.3666    1.2866 H   0  0  0  0  0  0  0  0  0  0  0  0
    2.3372   -4.7195    1.2600 H   0  0  0  0  0  0  0  0  0  0  0  0
    2.7138   -6.3502   -0.5160 H   0  0  0  0  0  0  0  0  0  0  0  0
    2.8775   -5.6322   -2.8753 H   0  0  0  0  0  0  0  0  0  0  0  0
    2.6587   -3.2362   -3.4472 H   0  0  0  0  0  0  0  0  0  0  0  0
    2.4040   -0.9131   -2.7531 H   0  0  0  0  0  0  0  0  0  0  0  0
    2.0283    0.7453   -0.9941 H   0  0  0  0  0  0  0  0  0  0  0  0
   -0.0779    1.5771   -0.1870 H   0  0  0  0  0  0  0  0  0  0  0  0
    7.4585   -0.6760    2.5017 H   0  0  0  0  0  0  0  0  0  0  0  0
    7.5912    0.9307    1.7851 H   0  0  0  0  0  0  0  0  0  0  0  0
    6.7102   -0.3468    0.9292 H   0  0  0  0  0  0  0  0  0  0  0  0
    4.0015    2.9137    6.0191 H   0  0  0  0  0  0  0  0  0  0  0  0
    5.6758    2.3501    6.1770 H   0  0  0  0  0  0  0  0  0  0  0  0
    4.3334    1.3086    6.6701 H   0  0  0  0  0  0  0  0  0  0  0  0
    3.8208    5.9167   -0.0140 H   0  0  0  0  0  0  0  0  0  0  0  0
    4.1406    5.2120    1.5796 H   0  0  0  0  0  0  0  0  0  0  0  0
    2.8233    6.3775    1.3640 H   0  0  0  0  0  0  0  0  0  0  0  0
   -0.1624    3.7566   -2.6770 H   0  0  0  0  0  0  0  0  0  0  0  0
   -1.0521    4.7755   -1.5463 H   0  0  0  0  0  0  0  0  0  0  0  0
   -1.3459    3.0236   -1.5887 H   0  0  0  0  0  0  0  0  0  0  0  0
   -4.4062   -2.7589    7.2036 H   0  0  0  0  0  0  0  0  0  0  0  0
   -2.9272   -1.7686    7.1447 H   0  0  0  0  0  0  0  0  0  0  0  0
   -2.8218   -3.5099    7.4327 H   0  0  0  0  0  0  0  0  0  0  0  0
   -4.9745   -5.6449    2.6146 H   0  0  0  0  0  0  0  0  0  0  0  0
   -5.1576   -4.2821    1.5053 H   0  0  0  0  0  0  0  0  0  0  0  0
   -6.1482   -4.3774    2.9756 H   0  0  0  0  0  0  0  0  0  0  0  0
   -0.4617   -0.5279   -2.7455 H   0  0  0  0  0  0  0  0  0  0  0  0
   -2.2070   -0.7582   -2.6296 H   0  0  0  0  0  0  0  0  0  0  0  0
   -1.2426   -1.8412   -3.6471 H   0  0  0  0  0  0  0  0  0  0  0  0
   -1.7079   -6.2847   -0.9724 H   0  0  0  0  0  0  0  0  0  0  0  0
   -0.2899   -6.3889    0.0803 H   0  0  0  0  0  0  0  0  0  0  0  0
   -0.0901   -6.1445   -1.6655 H   0  0  0  0  0  0  0  0  0  0  0  0
    0.1392    0.2733    4.6554 H   0  0  0  0  0  0  0  0  0  0  0  0
   -1.1661    0.8287    1.6502 H   0  0  0  0  0  0  0  0  0  0  0  0
   -3.9261    4.7991    0.8045 C   0  0  0  0  0  0  0  0  0  0  0  0
   -4.3157    4.4647    2.2517 C   0  0  0  0  0  0  0  0  0  0  0  0
   -5.5442    5.2614    2.6926 C   0  0  0  0  0  0  0  0  0  0  0  0
   -4.5828    3.0831    2.4071 O   0  0  0  0  0  0  0  0  0  0  0  0
   -3.3537    2.4457    2.7072 C   0  0  0  0  0  0  0  0  0  0  0  0
   -3.6163    1.2127    3.5690 C   0  0  0  0  0  0  0  0  0  0  0  0
   -2.3790    0.5606    4.0118 N   0  0  0  0  0  4  0  0  0  0  0  0
   -2.5240    3.5549    3.3976 C   0  0  0  0  0  0  0  0  0  0  0  0
   -1.0821    3.6591    2.8961 C   0  0  0  0  0  0  0  0  0  0  0  0
   -0.2376    2.5912    3.4414 N   0  0  0  0  0  4  0  0  0  0  0  0
   -3.2338    4.7509    3.1312 O   0  0  0  0  0  0  0  0  0  0  0  0
   -4.7647    4.5868    0.1448 H   0  0  0  0  0  0  0  0  0  0  0  0
   -3.0714    4.1997    0.4973 H   0  0  0  0  0  0  0  0  0  0  0  0
   -3.6625    5.8524    0.7376 H   0  0  0  0  0  0  0  0  0  0  0  0
   -6.3868    5.0097    2.0527 H   0  0  0  0  0  0  0  0  0  0  0  0
   -5.3287    6.3256    2.6254 H   0  0  0  0  0  0  0  0  0  0  0  0
   -5.7867    5.0070    3.7222 H   0  0  0  0  0  0  0  0  0  0  0  0
   -2.8478    2.1260    1.7841 H   0  0  0  0  0  0  0  0  0  0  0  0
   -4.2372    1.5115    4.4228 H   0  0  0  0  0  0  0  0  0  0  0  0
   -4.1955    0.5175    2.9553 H   0  0  0  0  0  0  0  0  0  0  0  0
   -2.1707    0.8246    4.9831 H   0  0  0  0  0  0  0  0  0  0  0  0
   -2.5732   -0.4353    4.0885 H   0  0  0  0  0  0  0  0  0  0  0  0
   -2.5224    3.4163    4.4918 H   0  0  0  0  0  0  0  0  0  0  0  0
   -1.0570    3.5989    1.8054 H   0  0  0  0  0  0  0  0  0  0  0  0
   -0.7052    4.6464    3.1933 H   0  0  0  0  0  0  0  0  0  0  0  0
   -0.2406    2.6795    4.4541 H   0  0  0  0  0  0  0  0  0  0  0  0
    0.7119    2.7923    3.1360 H   0  0  0  0  0  0  0  0  0  0  0  0
   -1.3248    0.0534    6.5226 O   0  0  0  0  0  0  0  0  0  0  0  0
   -0.0875    0.2348    6.3638 C   0  0  0  0  0  0  0  0  0  0  0  0
    0.4964    1.5790    6.7875 C   0  0  0  0  0  0  0  0  0  0  0  0
   -0.6060    2.6173    6.9471 C   0  0  0  0  0  0  0  0  0  0  0  0
    1.2009    1.4395    8.1307 C   0  0  0  0  0  0  0  0  0  0  0  0
    0.8651   -0.9101    6.6524 C   0  0  0  0  0  3  0  0  0  0  0  0
    0.4422   -1.8347    7.5946 C   0  0  0  0  0  3  0  0  0  0  0  0
    1.3436   -2.8018    8.0724 C   0  0  0  0  0  3  0  0  0  0  0  0
    2.6074   -2.8175    7.6209 C   0  0  0  0  0  3  0  0  0  0  0  0
    3.0090   -1.9237    6.6574 C   0  0  0  0  0  3  0  0  0  0  0  0
    2.1242   -0.9849    6.1745 C   0  0  0  0  0  3  0  0  0  0  0  0
    1.2257    1.9170    6.0698 H   0  0  0  0  0  0  0  0  0  0  0  0
   -1.2647    2.6469    6.0976 H   0  0  0  0  0  0  0  0  0  0  0  0
   -1.2103    2.3635    7.7998 H   0  0  0  0  0  0  0  0  0  0  0  0
   -0.1861    3.5956    7.0996 H   0  0  0  0  0  0  0  0  0  0  0  0
    2.0828    0.8288    8.0572 H   0  0  0  0  0  0  0  0  0  0  0  0
    1.4890    2.4124    8.4874 H   0  0  0  0  0  0  0  0  0  0  0  0
    0.5405    0.9938    8.8531 H   0  0  0  0  0  0  0  0  0  0  0  0
   -0.5602   -1.7899    7.9723 H   0  0  0  0  0  0  0  0  0  0  0  0
    1.0041   -3.5036    8.8097 H   0  0  0  0  0  0  0  0  0  0  0  0
    3.3117   -3.5324    8.0015 H   0  0  0  0  0  0  0  0  0  0  0  0
    4.0114   -1.9494    6.2762 H   0  0  0  0  0  0  0  0  0  0  0  0
    2.4512   -0.3220    5.3981 H   0  0  0  0  0  0  0  0  0  0  0  0
  1  2  1  0  0  0  0
  1 46  1  0  0  0  0
  1 56  1  0  0  0  0
  2  3  1  0  0  0  0
  2 50  1  0  0  0  0
  3  4  1  0  0  0  0
  3 57  1  0  0  0  0
  4  5  1  0  0  0  0
  4 45  1  0  0  0  0
  5  6  1  0  0  0  0
  5 12  1  0  0  0  0
  5 47  1  0  0  0  0
  6  7  1  0  0  0  0
  6 11  1  0  0  0  0
  7  8  1  0  0  0  0
  7 58  1  0  0  0  0
  8  9  1  0  0  0  0
  8 49  1  0  0  0  0
  9 10  1  0  0  0  0
  9 59  1  0  0  0  0
 10 11  1  0  0  0  0
 10 48  1  0  0  0  0
 11 60  1  0  0  0  0
 12 13  1  0  0  0  0
 12 44  1  0  0  0  0
 13 14  1  0  0  0  0
 13 37  1  0  0  0  0
 14 15  1  0  0  0  0
 14 36  1  0  0  0  0
 15 16  1  0  0  0  0
 15 29  1  0  0  0  0
 16 17  1  0  0  0  0
 16 23  1  0  0  0  0
 17 18  1  0  0  0  0
 17 22  1  0  0  0  0
 18 19  1  0  0  0  0
 18 61  1  0  0  0  0
 19 20  1  0  0  0  0
 19 54  1  0  0  0  0
 20 21  1  0  0  0  0
 20 62  1  0  0  0  0
 21 22  1  0  0  0  0
 21 55  1  0  0  0  0
 22 63  1  0  0  0  0
 23 24  1  0  0  0  0
 23 28  1  0  0  0  0
 24 25  1  0  0  0  0
 24 64  1  0  0  0  0
 25 26  1  0  0  0  0
 25 52  1  0  0  0  0
 26 27  1  0  0  0  0
 26 65  1  0  0  0  0
 27 28  1  0  0  0  0
 27 53  1  0  0  0  0
 28 66  1  0  0  0  0
 29 30  1  0  0  0  0
 29 67  1  0  0  0  0
 30 31  1  0  0  0  0
 30 68  1  0  0  0  0
 31 32  1  0  0  0  0
 31 36  1  0  0  0  0
 32 33  1  0  0  0  0
 32 69  1  0  0  0  0
 33 34  1  0  0  0  0
 33 70  1  0  0  0  0
 34 35  1  0  0  0  0
 34 71  1  0  0  0  0
 35 36  1  0  0  0  0
 35 72  1  0  0  0  0
 37 38  1  0  0  0  0
 37 42  1  0  0  0  0
 38 39  1  0  0  0  0
 38 73  1  0  0  0  0
 39 40  1  0  0  0  0
 39 74  1  0  0  0  0
 40 41  1  0  0  0  0
 40 75  1  0  0  0  0
 41 42  1  0  0  0  0
 41 76  1  0  0  0  0
 42 43  1  0  0  0  0
 43 44  1  0  0  0  0
 43 77  1  0  0  0  0
 44 78  1  0  0  0  0
 45 46  1  0  0  0  0
 45 79  1  0  0  0  0
 46 51  1  0  0  0  0
 47 16  1  0  0  0  0
 47112  1  0  0  0  0
 48 80  1  0  0  0  0
 48 81  1  0  0  0  0
 48 82  1  0  0  0  0
 49 83  1  0  0  0  0
 49 84  1  0  0  0  0
 49 85  1  0  0  0  0
 50 86  1  0  0  0  0
 50 87  1  0  0  0  0
 50 88  1  0  0  0  0
 51 89  1  0  0  0  0
 51 90  1  0  0  0  0
 51 91  1  0  0  0  0
 52 92  1  0  0  0  0
 52 93  1  0  0  0  0
 52 94  1  0  0  0  0
 53 95  1  0  0  0  0
 53 96  1  0  0  0  0
 53 97  1  0  0  0  0
 54 98  1  0  0  0  0
 54 99  1  0  0  0  0
 54100  1  0  0  0  0
 55101  1  0  0  0  0
 55102  1  0  0  0  0
 55103  1  0  0  0  0
104 47  1  0  0  0  0
105 47  1  0  0  0  0
106107  1  0  0  0  0
106117  1  0  0  0  0
106118  1  0  0  0  0
106119  1  0  0  0  0
107108  1  0  0  0  0
107109  1  0  0  0  0
107116  1  0  0  0  0
108120  1  0  0  0  0
108121  1  0  0  0  0
108122  1  0  0  0  0
109110  1  0  0  0  0
110111  1  0  0  0  0
110113  1  0  0  0  0
110123  1  0  0  0  0
111112  1  0  0  0  0
111124  1  0  0  0  0
111125  1  0  0  0  0
112126  1  0  0  0  0
112127  1  0  0  0  0
113114  1  0  0  0  0
113116  1  0  0  0  0
113128  1  0  0  0  0
114115  1  0  0  0  0
114129  1  0  0  0  0
114130  1  0  0  0  0
115131  1  0  0  0  0
115132  1  0  0  0  0
115 47  1  0  0  0  0
133134  2  0  0  0  0
133126  1  0  0  0  0
134135  1  0  0  0  0
134138  1  0  0  0  0
134104  1  0  0  0  0
135136  1  0  0  0  0
135137  1  0  0  0  0
135144  1  0  0  0  0
136145  1  0  0  0  0
136146  1  0  0  0  0
136147  1  0  0  0  0
137148  1  0  0  0  0
137149  1  0  0  0  0
137150  1  0  0  0  0
138139  1  0  0  0  0
138143  1  0  0  0  0
139140  1  0  0  0  0
139151  1  0  0  0  0
140141  1  0  0  0  0
140152  1  0  0  0  0
141142  1  0  0  0  0
141153  1  0  0  0  0
142143  1  0  0  0  0
142154  1  0  0  0  0
143155  1  0  0  0  0
M  END
