 energy: -218.517438552657 gnorm: 0.001057150660 xtb: 6.7.1 (edcfbbe)
          07072515393D

154167  0     0  0            999 V2000
    3.2272    4.3094   -0.1936 C   0  0  0  0  0  3  0  0  0  0  0  0
    3.8933    3.8231    0.9825 C   0  0  0  0  0  3  0  0  0  0  0  0
    3.5177    2.5448    1.5222 C   0  0  0  0  0  3  0  0  0  0  0  0
    2.5121    1.7500    0.8967 C   0  0  0  0  0  3  0  0  0  0  0  0
    1.8097    0.2391    1.6837 P   0  0  0  0  0  4  0  0  0  0  0  0
    3.1269   -0.2007    2.8751 C   0  0  0  0  0  3  0  0  0  0  0  0
    2.7820   -0.5096    4.2330 C   0  0  0  0  0  3  0  0  0  0  0  0
    3.8030   -0.8502    5.1871 C   0  0  0  0  0  3  0  0  0  0  0  0
    5.1687   -0.8938    4.7486 C   0  0  0  0  0  3  0  0  0  0  0  0
    5.5292   -0.6290    3.3824 C   0  0  0  0  0  3  0  0  0  0  0  0
    4.4996   -0.2858    2.4456 C   0  0  0  0  0  3  0  0  0  0  0  0
    2.1090   -1.1480    0.4976 C   0  0  0  0  0  3  0  0  0  0  0  0
    2.0032   -2.4993    0.9828 C   0  0  0  0  0  3  0  0  0  0  0  0
    1.7901   -2.8403    2.4281 C   0  0  0  0  0  3  0  0  0  0  0  0
    0.4867   -2.7262    3.0703 C   0  0  0  0  0  3  0  0  0  0  0  0
   -0.8609   -1.8435    2.1385 P   0  0  0  0  0  4  0  0  0  0  0  0
   -0.8365   -2.8835    0.6276 C   0  0  0  0  0  3  0  0  0  0  0  0
   -0.8316   -2.2967   -0.6751 C   0  0  0  0  0  3  0  0  0  0  0  0
   -0.8314   -3.1277   -1.8565 C   0  0  0  0  0  3  0  0  0  0  0  0
   -0.8835   -4.5562   -1.6935 C   0  0  0  0  0  3  0  0  0  0  0  0
   -0.9134   -5.1616   -0.3929 C   0  0  0  0  0  3  0  0  0  0  0  0
   -0.8710   -4.3218    0.7650 C   0  0  0  0  0  3  0  0  0  0  0  0
   -2.4556   -2.3901    2.8625 C   0  0  0  0  0  3  0  0  0  0  0  0
   -2.8505   -1.8347    4.1363 C   0  0  0  0  0  3  0  0  0  0  0  0
   -4.1488   -2.1116    4.6974 C   0  0  0  0  0  3  0  0  0  0  0  0
   -5.0699   -2.9304    3.9477 C   0  0  0  0  0  3  0  0  0  0  0  0
   -4.7105   -3.4557    2.6505 C   0  0  0  0  0  3  0  0  0  0  0  0
   -3.4106   -3.1708    2.1202 C   0  0  0  0  0  3  0  0  0  0  0  0
    0.3101   -3.1475    4.4406 C   0  0  0  0  0  3  0  0  0  0  0  0
    1.3854   -3.7205    5.1696 C   0  0  0  0  0  3  0  0  0  0  0  0
    2.6931   -3.8643    4.5603 C   0  0  0  0  0  3  0  0  0  0  0  0
    3.8026   -4.4457    5.3024 C   0  0  0  0  0  3  0  0  0  0  0  0
    5.0831   -4.5708    4.7042 C   0  0  0  0  0  3  0  0  0  0  0  0
    5.2947   -4.1219    3.3493 C   0  0  0  0  0  3  0  0  0  0  0  0
    4.2315   -3.5572    2.6015 C   0  0  0  0  0  3  0  0  0  0  0  0
    2.9025   -3.4263    3.1886 C   0  0  0  0  0  3  0  0  0  0  0  0
    2.2034   -3.6203    0.0400 C   0  0  0  0  0  3  0  0  0  0  0  0
    2.1506   -5.0070    0.4796 C   0  0  0  0  0  3  0  0  0  0  0  0
    2.3442   -6.0652   -0.4471 C   0  0  0  0  0  3  0  0  0  0  0  0
    2.5655   -5.7863   -1.8458 C   0  0  0  0  0  3  0  0  0  0  0  0
    2.6056   -4.4461   -2.3041 C   0  0  0  0  0  3  0  0  0  0  0  0
    2.4350   -3.3419   -1.3758 C   0  0  0  0  0  3  0  0  0  0  0  0
    2.5144   -1.9659   -1.8224 C   0  0  0  0  0  3  0  0  0  0  0  0
    2.3660   -0.9029   -0.9009 C   0  0  0  0  0  3  0  0  0  0  0  0
    1.8224    2.2731   -0.2576 C   0  0  0  0  0  3  0  0  0  0  0  0
    2.1797    3.5453   -0.8216 C   0  0  0  0  0  3  0  0  0  0  0  0
   -0.6245    0.6737    2.0457 Ru  0  0  0  0  0  0  0  0  0  0  0  0
    6.9720   -0.6955    2.9547 C   0  0  0  0  0  0  0  0  0  0  0  0
    3.4490   -1.1373    6.6229 C   0  0  0  0  0  0  0  0  0  0  0  0
    4.9482    4.6479    1.6682 C   0  0  0  0  0  0  0  0  0  0  0  0
    1.4609    4.0896   -2.0291 C   0  0  0  0  0  0  0  0  0  0  0  0
   -4.5473   -1.5555    6.0370 C   0  0  0  0  0  0  0  0  0  0  0  0
   -5.7021   -4.2802    1.8690 C   0  0  0  0  0  0  0  0  0  0  0  0
   -0.7980   -2.5177   -3.2285 C   0  0  0  0  0  0  0  0  0  0  0  0
   -1.0141   -6.6601   -0.2596 C   0  0  0  0  0  0  0  0  0  0  0  0
    3.5035    5.2787   -0.6094 H   0  0  0  0  0  0  0  0  0  0  0  0
    4.0158    2.1865    2.4214 H   0  0  0  0  0  0  0  0  0  0  0  0
    1.7396   -0.5083    4.5117 H   0  0  0  0  0  0  0  0  0  0  0  0
    5.9505   -1.1521    5.4629 H   0  0  0  0  0  0  0  0  0  0  0  0
    4.7495   -0.0872    1.4065 H   0  0  0  0  0  0  0  0  0  0  0  0
   -0.8022   -1.2104   -0.7564 H   0  0  0  0  0  0  0  0  0  0  0  0
   -0.8955   -5.1935   -2.5783 H   0  0  0  0  0  0  0  0  0  0  0  0
   -0.8750   -4.7618    1.7600 H   0  0  0  0  0  0  0  0  0  0  0  0
   -2.1531   -1.1983    4.6739 H   0  0  0  0  0  0  0  0  0  0  0  0
   -6.0576   -3.1443    4.3578 H   0  0  0  0  0  0  0  0  0  0  0  0
   -3.1461   -3.5575    1.1387 H   0  0  0  0  0  0  0  0  0  0  0  0
   -0.6687   -3.0456    4.9011 H   0  0  0  0  0  0  0  0  0  0  0  0
    1.2359   -4.0556    6.1962 H   0  0  0  0  0  0  0  0  0  0  0  0
    3.6332   -4.7813    6.3254 H   0  0  0  0  0  0  0  0  0  0  0  0
    5.9104   -5.0061    5.2654 H   0  0  0  0  0  0  0  0  0  0  0  0
    6.2833   -4.2179    2.8992 H   0  0  0  0  0  0  0  0  0  0  0  0
    4.3954   -3.2170    1.5819 H   0  0  0  0  0  0  0  0  0  0  0  0
    1.9749   -5.2270    1.5291 H   0  0  0  0  0  0  0  0  0  0  0  0
    2.3191   -7.0987   -0.1018 H   0  0  0  0  0  0  0  0  0  0  0  0
    2.7030   -6.6107   -2.5461 H   0  0  0  0  0  0  0  0  0  0  0  0
    2.7747   -4.2257   -3.3587 H   0  0  0  0  0  0  0  0  0  0  0  0
    2.7049   -1.7578   -2.8757 H   0  0  0  0  0  0  0  0  0  0  0  0
    2.4676    0.1239   -1.2471 H   0  0  0  0  0  0  0  0  0  0  0  0
    1.0085    1.6914   -0.6909 H   0  0  0  0  0  0  0  0  0  0  0  0
    7.4574   -1.5840    3.3803 H   0  0  0  0  0  0  0  0  0  0  0  0
    7.5157    0.1898    3.3105 H   0  0  0  0  0  0  0  0  0  0  0  0
    7.0523   -0.7345    1.8599 H   0  0  0  0  0  0  0  0  0  0  0  0
    3.7326   -0.2874    7.2592 H   0  0  0  0  0  0  0  0  0  0  0  0
    3.9860   -2.0263    6.9800 H   0  0  0  0  0  0  0  0  0  0  0  0
    2.3681   -1.3055    6.7214 H   0  0  0  0  0  0  0  0  0  0  0  0
    4.5315    5.1119    2.5727 H   0  0  0  0  0  0  0  0  0  0  0  0
    5.3146    5.4453    1.0079 H   0  0  0  0  0  0  0  0  0  0  0  0
    5.7953    4.0176    1.9730 H   0  0  0  0  0  0  0  0  0  0  0  0
    2.1724    4.2826   -2.8439 H   0  0  0  0  0  0  0  0  0  0  0  0
    0.9644    5.0368   -1.7839 H   0  0  0  0  0  0  0  0  0  0  0  0
    0.7033    3.3759   -2.3851 H   0  0  0  0  0  0  0  0  0  0  0  0
   -5.5947   -1.7959    6.2609 H   0  0  0  0  0  0  0  0  0  0  0  0
   -4.4217   -0.4637    6.0591 H   0  0  0  0  0  0  0  0  0  0  0  0
   -3.9151   -1.9806    6.8291 H   0  0  0  0  0  0  0  0  0  0  0  0
   -6.0611   -5.1238    2.4742 H   0  0  0  0  0  0  0  0  0  0  0  0
   -5.2421   -4.6710    0.9516 H   0  0  0  0  0  0  0  0  0  0  0  0
   -6.5730   -3.6683    1.5930 H   0  0  0  0  0  0  0  0  0  0  0  0
   -0.5079   -1.4603   -3.1710 H   0  0  0  0  0  0  0  0  0  0  0  0
   -1.7869   -2.5834   -3.7027 H   0  0  0  0  0  0  0  0  0  0  0  0
   -0.0803   -3.0512   -3.8674 H   0  0  0  0  0  0  0  0  0  0  0  0
   -2.0393   -6.9909   -0.4768 H   0  0  0  0  0  0  0  0  0  0  0  0
   -0.7554   -6.9781    0.7601 H   0  0  0  0  0  0  0  0  0  0  0  0
   -0.3391   -7.1543   -0.9710 H   0  0  0  0  0  0  0  0  0  0  0  0
   -0.6571    2.7463    1.6413 N   0  0  0  0  0  4  0  0  0  0  0  0
   -2.0251    3.1390    1.2985 C   0  0  0  0  0  0  0  0  0  0  0  0
   -2.2419    4.6549    1.2265 C   0  0  0  0  0  3  0  0  0  0  0  0
   -2.8934    5.2110    0.1246 C   0  0  0  0  0  3  0  0  0  0  0  0
   -3.1223    6.5790    0.0639 C   0  0  0  0  0  3  0  0  0  0  0  0
   -2.7017    7.4004    1.0986 C   0  0  0  0  0  3  0  0  0  0  0  0
   -2.0545    6.8542    2.1961 C   0  0  0  0  0  3  0  0  0  0  0  0
   -1.8237    5.4875    2.2693 C   0  0  0  0  0  3  0  0  0  0  0  0
   -2.9387    2.5069    2.3930 C   0  0  0  0  0  0  0  0  0  0  0  0
   -2.7096    1.0399    2.3416 N   0  0  0  0  0  4  0  0  0  0  0  0
   -4.3999    2.9148    2.1870 C   0  0  0  0  0  3  0  0  0  0  0  0
   -5.1522    2.3954    1.1243 C   0  0  0  0  0  3  0  0  0  0  0  0
   -6.4603    2.8099    0.9298 C   0  0  0  0  0  3  0  0  0  0  0  0
   -7.0312    3.7445    1.7774 C   0  0  0  0  0  3  0  0  0  0  0  0
   -6.2924    4.2703    2.8273 C   0  0  0  0  0  3  0  0  0  0  0  0
   -4.9811    3.8565    3.0328 C   0  0  0  0  0  3  0  0  0  0  0  0
   -0.0078    3.0365    0.8946 H   0  0  0  0  0  0  0  0  0  0  0  0
   -0.3736    3.2641    2.4878 H   0  0  0  0  0  0  0  0  0  0  0  0
   -2.2825    2.6904    0.3218 H   0  0  0  0  0  0  0  0  0  0  0  0
   -3.2238    4.5718   -0.6807 H   0  0  0  0  0  0  0  0  0  0  0  0
   -3.6293    7.0008   -0.7928 H   0  0  0  0  0  0  0  0  0  0  0  0
   -2.8807    8.4661    1.0491 H   0  0  0  0  0  0  0  0  0  0  0  0
   -1.7282    7.4942    3.0045 H   0  0  0  0  0  0  0  0  0  0  0  0
   -1.3311    5.0698    3.1332 H   0  0  0  0  0  0  0  0  0  0  0  0
   -2.5781    2.8749    3.3682 H   0  0  0  0  0  0  0  0  0  0  0  0
   -3.0824    0.5995    3.1966 H   0  0  0  0  0  0  0  0  0  0  0  0
   -3.2311    0.6365    1.5498 H   0  0  0  0  0  0  0  0  0  0  0  0
   -4.7159    1.6784    0.4467 H   0  0  0  0  0  0  0  0  0  0  0  0
   -7.0337    2.4029    0.1073 H   0  0  0  0  0  0  0  0  0  0  0  0
   -8.0515    4.0667    1.6190 H   0  0  0  0  0  0  0  0  0  0  0  0
   -6.7330    5.0034    3.4873 H   0  0  0  0  0  0  0  0  0  0  0  0
   -4.4030    4.2707    3.8453 H   0  0  0  0  0  0  0  0  0  0  0  0
   -0.4178    1.0681    3.7166 H   0  0  0  0  0  0  0  0  0  0  0  0
   -0.8882    0.5207    0.5603 H   0  0  0  0  0  0  0  0  0  0  0  0
    1.1675    2.1578    5.2932 C   0  0  0  0  0  0  0  0  0  0  0  0
   -0.2971    2.2968    4.9144 C   0  0  0  0  0  0  0  0  0  0  0  0
   -1.2631    1.6832    5.9095 C   0  0  0  0  0  3  0  0  0  0  0  0
   -1.1053    0.4957    6.5564 C   0  0  0  0  0  3  0  0  0  0  0  0
   -0.0963   -0.3531    6.2315 F   0  0  0  0  0  0  0  0  0  0  0  0
   -1.9383    0.0777    7.5523 C   0  0  0  0  0  3  0  0  0  0  0  0
   -3.0138    0.8686    7.9237 C   0  0  0  0  0  3  0  0  0  0  0  0
   -3.2316    2.0529    7.2698 C   0  0  0  0  0  3  0  0  0  0  0  0
   -2.3563    2.4555    6.2746 C   0  0  0  0  0  3  0  0  0  0  0  0
   -0.6291    3.3908    4.3819 O   0  0  0  0  0  0  0  0  0  0  0  0
    1.3704    2.9427    6.0000 H   0  0  0  0  0  0  0  0  0  0  0  0
    1.7856    2.3093    4.4267 H   0  0  0  0  0  0  0  0  0  0  0  0
    1.4124    1.2134    5.7417 H   0  0  0  0  0  0  0  0  0  0  0  0
   -1.7463   -0.8587    8.0383 H   0  0  0  0  0  0  0  0  0  0  0  0
   -3.6651    0.5460    8.7125 H   0  0  0  0  0  0  0  0  0  0  0  0
   -4.0633    2.6773    7.5321 H   0  0  0  0  0  0  0  0  0  0  0  0
   -2.4884    3.3979    5.7801 H   0  0  0  0  0  0  0  0  0  0  0  0
  1  2  1  0  0  0  0
  1 46  1  0  0  0  0
  1 56  1  0  0  0  0
  2  3  1  0  0  0  0
  2 50  1  0  0  0  0
  3  4  1  0  0  0  0
  3 57  1  0  0  0  0
  4  5  1  0  0  0  0
  4 45  1  0  0  0  0
  5  6  1  0  0  0  0
  5 12  1  0  0  0  0
  5 47  1  0  0  0  0
  6  7  1  0  0  0  0
  6 11  1  0  0  0  0
  7  8  1  0  0  0  0
  7 58  1  0  0  0  0
  8  9  1  0  0  0  0
  8 49  1  0  0  0  0
  9 10  1  0  0  0  0
  9 59  1  0  0  0  0
 10 11  1  0  0  0  0
 10 48  1  0  0  0  0
 11 60  1  0  0  0  0
 12 13  1  0  0  0  0
 12 44  1  0  0  0  0
 13 14  1  0  0  0  0
 13 37  1  0  0  0  0
 14 15  1  0  0  0  0
 14 36  1  0  0  0  0
 15 16  1  0  0  0  0
 15 29  1  0  0  0  0
 16 17  1  0  0  0  0
 16 23  1  0  0  0  0
 17 18  1  0  0  0  0
 17 22  1  0  0  0  0
 18 19  1  0  0  0  0
 18 61  1  0  0  0  0
 19 20  1  0  0  0  0
 19 54  1  0  0  0  0
 20 21  1  0  0  0  0
 20 62  1  0  0  0  0
 21 22  1  0  0  0  0
 21 55  1  0  0  0  0
 22 63  1  0  0  0  0
 23 24  1  0  0  0  0
 23 28  1  0  0  0  0
 24 25  1  0  0  0  0
 24 64  1  0  0  0  0
 25 26  1  0  0  0  0
 25 52  1  0  0  0  0
 26 27  1  0  0  0  0
 26 65  1  0  0  0  0
 27 28  1  0  0  0  0
 27 53  1  0  0  0  0
 28 66  1  0  0  0  0
 29 30  1  0  0  0  0
 29 67  1  0  0  0  0
 30 31  1  0  0  0  0
 30 68  1  0  0  0  0
 31 32  1  0  0  0  0
 31 36  1  0  0  0  0
 32 33  1  0  0  0  0
 32 69  1  0  0  0  0
 33 34  1  0  0  0  0
 33 70  1  0  0  0  0
 34 35  1  0  0  0  0
 34 71  1  0  0  0  0
 35 36  1  0  0  0  0
 35 72  1  0  0  0  0
 37 38  1  0  0  0  0
 37 42  1  0  0  0  0
 38 39  1  0  0  0  0
 38 73  1  0  0  0  0
 39 40  1  0  0  0  0
 39 74  1  0  0  0  0
 40 41  1  0  0  0  0
 40 75  1  0  0  0  0
 41 42  1  0  0  0  0
 41 76  1  0  0  0  0
 42 43  1  0  0  0  0
 43 44  1  0  0  0  0
 43 77  1  0  0  0  0
 44 78  1  0  0  0  0
 45 46  1  0  0  0  0
 45 79  1  0  0  0  0
 46 51  1  0  0  0  0
 47 16  1  0  0  0  0
 47104  1  0  0  0  0
 48 80  1  0  0  0  0
 48 81  1  0  0  0  0
 48 82  1  0  0  0  0
 49 83  1  0  0  0  0
 49 84  1  0  0  0  0
 49 85  1  0  0  0  0
 50 86  1  0  0  0  0
 50 87  1  0  0  0  0
 50 88  1  0  0  0  0
 51 89  1  0  0  0  0
 51 90  1  0  0  0  0
 51 91  1  0  0  0  0
 52 92  1  0  0  0  0
 52 93  1  0  0  0  0
 52 94  1  0  0  0  0
 53 95  1  0  0  0  0
 53 96  1  0  0  0  0
 53 97  1  0  0  0  0
 54 98  1  0  0  0  0
 54 99  1  0  0  0  0
 54100  1  0  0  0  0
 55101  1  0  0  0  0
 55102  1  0  0  0  0
 55103  1  0  0  0  0
104105  1  0  0  0  0
104120  1  0  0  0  0
104121  1  0  0  0  0
105106  1  0  0  0  0
105112  1  0  0  0  0
105122  1  0  0  0  0
106107  1  0  0  0  0
106111  1  0  0  0  0
107108  1  0  0  0  0
107123  1  0  0  0  0
108109  1  0  0  0  0
108124  1  0  0  0  0
109110  1  0  0  0  0
109125  1  0  0  0  0
110111  1  0  0  0  0
110126  1  0  0  0  0
111127  1  0  0  0  0
112113  1  0  0  0  0
112114  1  0  0  0  0
112128  1  0  0  0  0
113129  1  0  0  0  0
113130  1  0  0  0  0
113 47  1  0  0  0  0
114115  1  0  0  0  0
114119  1  0  0  0  0
115116  1  0  0  0  0
115131  1  0  0  0  0
116117  1  0  0  0  0
116132  1  0  0  0  0
117118  1  0  0  0  0
117133  1  0  0  0  0
118119  1  0  0  0  0
118134  1  0  0  0  0
119135  1  0  0  0  0
136 47  1  0  0  0  0
137 47  1  0  0  0  0
138139  1  0  0  0  0
138148  1  0  0  0  0
138149  1  0  0  0  0
138150  1  0  0  0  0
139140  1  0  0  0  0
139147  2  0  0  0  0
139136  1  0  0  0  0
140141  1  0  0  0  0
140146  1  0  0  0  0
141142  1  0  0  0  0
141143  1  0  0  0  0
143144  1  0  0  0  0
143151  1  0  0  0  0
144145  1  0  0  0  0
144152  1  0  0  0  0
145146  1  0  0  0  0
145153  1  0  0  0  0
146154  1  0  0  0  0
147121  1  0  0  0  0
M  END
