 energy: -297.496437583422 gnorm: 0.000953333663 xtb: 6.7.1 (edcfbbe)
          07072520463D

191205  0     0  0            999 V2000
    3.5476    3.7885    0.9722 C   0  0  0  0  0  3  0  0  0  0  0  0
    4.2775    3.1451    2.0343 C   0  0  0  0  0  3  0  0  0  0  0  0
    3.7730    1.9101    2.5896 C   0  0  0  0  0  3  0  0  0  0  0  0
    2.5593    1.3269    2.0896 C   0  0  0  0  0  3  0  0  0  0  0  0
    1.7170   -0.1334    2.7996 P   0  0  0  0  0  4  0  0  0  0  0  0
    2.8858   -0.6985    4.1277 C   0  0  0  0  0  3  0  0  0  0  0  0
    2.4025   -0.9318    5.4590 C   0  0  0  0  0  3  0  0  0  0  0  0
    3.3047   -1.3763    6.4926 C   0  0  0  0  0  3  0  0  0  0  0  0
    4.6909   -1.5618    6.1682 C   0  0  0  0  0  3  0  0  0  0  0  0
    5.1895   -1.3648    4.8409 C   0  0  0  0  0  3  0  0  0  0  0  0
    4.2773   -0.9468    3.8079 C   0  0  0  0  0  3  0  0  0  0  0  0
    2.0735   -1.4901    1.5597 C   0  0  0  0  0  3  0  0  0  0  0  0
    1.9792   -2.8823    1.9835 C   0  0  0  0  0  3  0  0  0  0  0  0
    1.6426   -3.2594    3.3979 C   0  0  0  0  0  3  0  0  0  0  0  0
    0.3019   -3.0903    3.9201 C   0  0  0  0  0  3  0  0  0  0  0  0
   -0.9457   -2.1779    2.9464 P   0  0  0  0  0  4  0  0  0  0  0  0
   -0.8255   -3.1122    1.3638 C   0  0  0  0  0  3  0  0  0  0  0  0
   -0.9276   -2.4296    0.1129 C   0  0  0  0  0  3  0  0  0  0  0  0
   -0.9299   -3.1582   -1.1265 C   0  0  0  0  0  3  0  0  0  0  0  0
   -0.8561   -4.5919   -1.0848 C   0  0  0  0  0  3  0  0  0  0  0  0
   -0.7659   -5.3004    0.1626 C   0  0  0  0  0  3  0  0  0  0  0  0
   -0.7368   -4.5504    1.3860 C   0  0  0  0  0  3  0  0  0  0  0  0
   -2.5961   -2.7740    3.5115 C   0  0  0  0  0  3  0  0  0  0  0  0
   -3.2525   -1.9880    4.5285 C   0  0  0  0  0  3  0  0  0  0  0  0
   -4.6524   -2.1442    4.8086 C   0  0  0  0  0  3  0  0  0  0  0  0
   -5.3836   -3.1636    4.1127 C   0  0  0  0  0  3  0  0  0  0  0  0
   -4.7458   -3.9997    3.1377 C   0  0  0  0  0  3  0  0  0  0  0  0
   -3.3638   -3.7714    2.8183 C   0  0  0  0  0  3  0  0  0  0  0  0
   -0.0097   -3.5026    5.2727 C   0  0  0  0  0  3  0  0  0  0  0  0
    0.9722   -4.1177    6.0952 C   0  0  0  0  0  3  0  0  0  0  0  0
    2.3165   -4.3330    5.5948 C   0  0  0  0  0  3  0  0  0  0  0  0
    3.3258   -4.9780    6.4195 C   0  0  0  0  0  3  0  0  0  0  0  0
    4.6362   -5.1896    5.9229 C   0  0  0  0  0  3  0  0  0  0  0  0
    4.9829   -4.7599    4.5901 C   0  0  0  0  0  3  0  0  0  0  0  0
    4.0227   -4.1199    3.7664 C   0  0  0  0  0  3  0  0  0  0  0  0
    2.6634   -3.9089    4.2448 C   0  0  0  0  0  3  0  0  0  0  0  0
    2.2625   -3.9455    1.0004 C   0  0  0  0  0  3  0  0  0  0  0  0
    2.2575   -5.3507    1.3790 C   0  0  0  0  0  3  0  0  0  0  0  0
    2.5371   -6.3584    0.4201 C   0  0  0  0  0  3  0  0  0  0  0  0
    2.7928   -6.0093   -0.9579 C   0  0  0  0  0  3  0  0  0  0  0  0
    2.7808   -4.6492   -1.3568 C   0  0  0  0  0  3  0  0  0  0  0  0
    2.5297   -3.5953   -0.3866 C   0  0  0  0  0  3  0  0  0  0  0  0
    2.5597   -2.2008   -0.7859 C   0  0  0  0  0  3  0  0  0  0  0  0
    2.3542   -1.1709    0.1701 C   0  0  0  0  0  3  0  0  0  0  0  0
    1.8320    2.0021    1.0447 C   0  0  0  0  0  3  0  0  0  0  0  0
    2.3225    3.2289    0.4657 C   0  0  0  0  0  3  0  0  0  0  0  0
   -0.8116    0.3096    3.0256 Ru  0  0  0  0  0  0  0  0  0  0  0  0
    6.6462   -1.5774    4.5342 C   0  0  0  0  0  0  0  0  0  0  0  0
    2.8096   -1.6423    7.8890 C   0  0  0  0  0  0  0  0  0  0  0  0
    5.5354    3.7668    2.5838 C   0  0  0  0  0  0  0  0  0  0  0  0
    1.5697    3.9162   -0.6438 C   0  0  0  0  0  0  0  0  0  0  0  0
   -5.3848   -1.2061    5.7323 C   0  0  0  0  0  0  0  0  0  0  0  0
   -5.5115   -5.0886    2.4360 C   0  0  0  0  0  0  0  0  0  0  0  0
   -1.0506   -2.4206   -2.4308 C   0  0  0  0  0  0  0  0  0  0  0  0
   -0.7459   -6.8061    0.1775 C   0  0  0  0  0  0  0  0  0  0  0  0
    3.9254    4.7200    0.5507 H   0  0  0  0  0  0  0  0  0  0  0  0
    4.3209    1.4233    3.3953 H   0  0  0  0  0  0  0  0  0  0  0  0
    1.3558   -0.7992    5.6706 H   0  0  0  0  0  0  0  0  0  0  0  0
    5.3779   -1.8878    6.9495 H   0  0  0  0  0  0  0  0  0  0  0  0
    4.6238   -0.8307    2.7826 H   0  0  0  0  0  0  0  0  0  0  0  0
   -0.9957   -1.3419    0.1159 H   0  0  0  0  0  0  0  0  0  0  0  0
   -0.8702   -5.1590   -2.0160 H   0  0  0  0  0  0  0  0  0  0  0  0
   -0.6473   -5.0696    2.3389 H   0  0  0  0  0  0  0  0  0  0  0  0
   -2.6649   -1.2523    5.0728 H   0  0  0  0  0  0  0  0  0  0  0  0
   -6.4468   -3.2936    4.3222 H   0  0  0  0  0  0  0  0  0  0  0  0
   -2.9074   -4.3643    2.0284 H   0  0  0  0  0  0  0  0  0  0  0  0
   -1.0239   -3.3566    5.6407 H   0  0  0  0  0  0  0  0  0  0  0  0
    0.7207   -4.4341    7.1078 H   0  0  0  0  0  0  0  0  0  0  0  0
    3.0548   -5.3012    7.4247 H   0  0  0  0  0  0  0  0  0  0  0  0
    5.3860   -5.6796    6.5445 H   0  0  0  0  0  0  0  0  0  0  0  0
    5.9935   -4.9267    4.2166 H   0  0  0  0  0  0  0  0  0  0  0  0
    4.2892   -3.7928    2.7625 H   0  0  0  0  0  0  0  0  0  0  0  0
    2.0550   -5.6245    2.4128 H   0  0  0  0  0  0  0  0  0  0  0  0
    2.5512   -7.4058    0.7214 H   0  0  0  0  0  0  0  0  0  0  0  0
    2.9941   -6.7945   -1.6862 H   0  0  0  0  0  0  0  0  0  0  0  0
    2.9706   -4.3741   -2.3946 H   0  0  0  0  0  0  0  0  0  0  0  0
    2.7614   -1.9503   -1.8279 H   0  0  0  0  0  0  0  0  0  0  0  0
    2.4126   -0.1303   -0.1295 H   0  0  0  0  0  0  0  0  0  0  0  0
    0.8962    1.5621    0.6997 H   0  0  0  0  0  0  0  0  0  0  0  0
    7.0279   -2.4565    5.0711 H   0  0  0  0  0  0  0  0  0  0  0  0
    7.2332   -0.7050    4.8537 H   0  0  0  0  0  0  0  0  0  0  0  0
    6.8011   -1.7215    3.4566 H   0  0  0  0  0  0  0  0  0  0  0  0
    3.2195   -0.8970    8.5838 H   0  0  0  0  0  0  0  0  0  0  0  0
    3.1345   -2.6370    8.2228 H   0  0  0  0  0  0  0  0  0  0  0  0
    1.7125   -1.5942    7.9225 H   0  0  0  0  0  0  0  0  0  0  0  0
    6.1096    4.2561    1.7855 H   0  0  0  0  0  0  0  0  0  0  0  0
    6.1660    3.0068    3.0657 H   0  0  0  0  0  0  0  0  0  0  0  0
    5.2805    4.5281    3.3343 H   0  0  0  0  0  0  0  0  0  0  0  0
    2.1639    3.9059   -1.5682 H   0  0  0  0  0  0  0  0  0  0  0  0
    1.3724    4.9656   -0.3850 H   0  0  0  0  0  0  0  0  0  0  0  0
    0.6160    3.4075   -0.8387 H   0  0  0  0  0  0  0  0  0  0  0  0
   -5.9285   -0.4542    5.1433 H   0  0  0  0  0  0  0  0  0  0  0  0
   -4.6960   -0.6802    6.4079 H   0  0  0  0  0  0  0  0  0  0  0  0
   -6.1145   -1.7556    6.3414 H   0  0  0  0  0  0  0  0  0  0  0  0
   -5.4275   -6.0276    3.0012 H   0  0  0  0  0  0  0  0  0  0  0  0
   -5.1085   -5.2587    1.4286 H   0  0  0  0  0  0  0  0  0  0  0  0
   -6.5768   -4.8309    2.3589 H   0  0  0  0  0  0  0  0  0  0  0  0
   -0.3951   -1.5392   -2.4291 H   0  0  0  0  0  0  0  0  0  0  0  0
   -2.0839   -2.0737   -2.5707 H   0  0  0  0  0  0  0  0  0  0  0  0
   -0.7816   -3.0686   -3.2759 H   0  0  0  0  0  0  0  0  0  0  0  0
   -1.7465   -7.1996   -0.0511 H   0  0  0  0  0  0  0  0  0  0  0  0
   -0.4414   -7.1817    1.1636 H   0  0  0  0  0  0  0  0  0  0  0  0
   -0.0491   -7.1887   -0.5804 H   0  0  0  0  0  0  0  0  0  0  0  0
   -5.0157   -0.1290   -3.6283 C   0  0  0  0  0  0  0  0  0  0  0  0
   -4.6376   -0.8454   -2.4909 O   0  0  0  0  0  0  0  0  0  0  0  0
   -4.4204   -0.1518   -1.3253 C   0  0  0  0  0  3  0  0  0  0  0  0
   -4.0243   -0.9065   -0.2224 C   0  0  0  0  0  3  0  0  0  0  0  0
   -3.7474   -0.2995    0.9937 C   0  0  0  0  0  3  0  0  0  0  0  0
   -3.8529    1.0884    1.1413 C   0  0  0  0  0  3  0  0  0  0  0  0
   -3.4602    1.8142    2.4461 C   0  0  0  0  0  0  0  0  0  0  0  0
   -2.8886    0.8226    3.3882 N   0  0  0  0  0  4  0  0  0  0  0  0
   -4.6864    2.4046    3.1813 C   0  0  0  0  0  3  0  0  0  0  0  0
   -5.9850    2.2897    2.6829 C   0  0  0  0  0  3  0  0  0  0  0  0
   -7.0775    2.7446    3.4057 C   0  0  0  0  0  3  0  0  0  0  0  0
   -6.8934    3.3229    4.6648 C   0  0  0  0  0  3  0  0  0  0  0  0
   -7.8962    3.8082    5.4608 O   0  0  0  0  0  0  0  0  0  0  0  0
   -9.2128    3.7162    5.0083 C   0  0  0  0  0  0  0  0  0  0  0  0
   -5.6019    3.4177    5.1809 C   0  0  0  0  0  3  0  0  0  0  0  0
   -4.5163    2.9578    4.4576 C   0  0  0  0  0  3  0  0  0  0  0  0
   -2.3138    2.8423    2.1079 C   0  0  0  0  0  0  0  0  0  0  0  0
   -1.0875    2.4166    2.7895 N   0  0  0  0  0  4  0  0  0  0  0  0
   -2.5727    4.3558    2.4159 C   0  0  0  0  0  0  0  0  0  0  0  0
   -1.2954    5.1688    2.1103 C   0  0  0  0  0  0  0  0  0  0  0  0
   -3.7258    4.9490    1.6055 C   0  0  0  0  0  0  0  0  0  0  0  0
   -4.2743    1.8269    0.0377 C   0  0  0  0  0  3  0  0  0  0  0  0
   -4.5617    1.2274   -1.1792 C   0  0  0  0  0  3  0  0  0  0  0  0
   -5.1158   -0.8708   -4.4331 H   0  0  0  0  0  0  0  0  0  0  0  0
   -4.2552    0.6128   -3.9179 H   0  0  0  0  0  0  0  0  0  0  0  0
   -5.9841    0.3816   -3.4911 H   0  0  0  0  0  0  0  0  0  0  0  0
   -3.9140   -1.9750   -0.3313 H   0  0  0  0  0  0  0  0  0  0  0  0
   -3.4150   -0.9394    1.7952 H   0  0  0  0  0  0  0  0  0  0  0  0
   -2.7938    1.2894    4.3033 H   0  0  0  0  0  0  0  0  0  0  0  0
   -3.5726    0.0631    3.5192 H   0  0  0  0  0  0  0  0  0  0  0  0
   -6.1515    1.8370    1.7207 H   0  0  0  0  0  0  0  0  0  0  0  0
   -8.0637    2.6367    2.9819 H   0  0  0  0  0  0  0  0  0  0  0  0
   -9.5223    2.6690    4.8550 H   0  0  0  0  0  0  0  0  0  0  0  0
   -9.3669    4.2788    4.0748 H   0  0  0  0  0  0  0  0  0  0  0  0
   -9.8341    4.1591    5.7992 H   0  0  0  0  0  0  0  0  0  0  0  0
   -5.4699    3.8521    6.1613 H   0  0  0  0  0  0  0  0  0  0  0  0
   -3.5385    3.0367    4.9072 H   0  0  0  0  0  0  0  0  0  0  0  0
   -2.1284    2.7554    1.0234 H   0  0  0  0  0  0  0  0  0  0  0  0
   -0.2776    2.8148    2.2924 H   0  0  0  0  0  0  0  0  0  0  0  0
   -1.0798    2.8419    3.7297 H   0  0  0  0  0  0  0  0  0  0  0  0
   -2.7997    4.4703    3.4906 H   0  0  0  0  0  0  0  0  0  0  0  0
   -0.9394    4.9616    1.0978 H   0  0  0  0  0  0  0  0  0  0  0  0
   -0.4891    4.9593    2.8249 H   0  0  0  0  0  0  0  0  0  0  0  0
   -1.5214    6.2413    2.1798 H   0  0  0  0  0  0  0  0  0  0  0  0
   -3.4963    4.9232    0.5365 H   0  0  0  0  0  0  0  0  0  0  0  0
   -3.8759    5.9985    1.8946 H   0  0  0  0  0  0  0  0  0  0  0  0
   -4.6657    4.4146    1.7896 H   0  0  0  0  0  0  0  0  0  0  0  0
   -4.3822    2.8832    0.1168 H   0  0  0  0  0  0  0  0  0  0  0  0
   -4.8815    1.8481   -2.0018 H   0  0  0  0  0  0  0  0  0  0  0  0
   -0.6358    0.4392    4.7516 H   0  0  0  0  0  0  0  0  0  0  0  0
   -0.9346    0.2716    1.4745 H   0  0  0  0  0  0  0  0  0  0  0  0
   -1.2720    2.6384    5.6246 O   0  0  0  0  0  0  0  0  0  0  0  0
   -0.8057    1.5479    6.0549 C   0  0  0  0  0  0  0  0  0  0  0  0
    0.6447    1.6311    6.4922 C   0  0  0  0  0  3  0  0  0  0  0  0
    0.9571    1.5427    7.8400 C   0  0  0  0  0  3  0  0  0  0  0  0
    2.2701    1.8249    8.2557 C   0  0  0  0  0  3  0  0  0  0  0  0
    3.2010    2.1892    7.3605 C   0  0  0  0  0  3  0  0  0  0  0  0
    2.8742    2.2977    6.0304 C   0  0  0  0  0  3  0  0  0  0  0  0
    1.5914    2.0189    5.6133 C   0  0  0  0  0  3  0  0  0  0  0  0
   -1.6712    0.6479    6.9069 C   0  0  0  0  0  3  0  0  0  0  0  0
   -2.8995    0.9504    7.4229 C   0  0  0  0  0  3  0  0  0  0  0  0
   -3.4135    0.0203    8.2979 N   0  0  0  0  0  2  0  0  0  0  0  0
   -2.5989   -0.9805    8.4364 C   0  0  0  0  0  3  0  0  0  0  0  0
   -2.8821   -2.1011    9.4182 C   0  0  0  0  0  0  0  0  0  0  0  0
   -4.3789   -2.1681    9.7190 C   0  0  0  0  0  0  0  0  0  0  0  0
   -4.8380   -1.0416   10.2642 F   0  0  0  0  0  0  0  0  0  0  0  0
   -5.1118   -2.4115    8.6323 F   0  0  0  0  0  0  0  0  0  0  0  0
   -4.6627   -3.1328   10.5948 F   0  0  0  0  0  0  0  0  0  0  0  0
   -2.4139   -3.4337    8.8333 C   0  0  0  0  0  0  0  0  0  0  0  0
   -2.8574   -3.6209    7.5890 F   0  0  0  0  0  0  0  0  0  0  0  0
   -1.0824   -3.4928    8.7848 F   0  0  0  0  0  0  0  0  0  0  0  0
   -2.8063   -4.4907    9.5442 F   0  0  0  0  0  0  0  0  0  0  0  0
   -2.1990   -1.9882   10.6595 O   0  0  0  0  0  0  0  0  0  0  0  0
   -1.9092   -0.6833   11.1333 C   0  0  0  0  0  0  0  0  0  0  0  0
   -0.7670   -0.1266   10.5135 O   0  0  0  0  0  0  0  0  0  0  0  0
    0.4348   -0.8096   10.8291 C   0  0  0  0  0  0  0  0  0  0  0  0
   -1.1381   -0.8960    7.5110 S   0  0  0  0  0  0  0  0  0  0  0  0
    0.2174    1.2933    8.5746 H   0  0  0  0  0  0  0  0  0  0  0  0
    2.5001    1.7603    9.3017 H   0  0  0  0  0  0  0  0  0  0  0  0
    4.2026    2.4090    7.6768 H   0  0  0  0  0  0  0  0  0  0  0  0
    3.6099    2.6090    5.3146 H   0  0  0  0  0  0  0  0  0  0  0  0
    1.3475    2.1010    4.5712 H   0  0  0  0  0  0  0  0  0  0  0  0
   -3.4685    1.8374    7.2276 H   0  0  0  0  0  0  0  0  0  0  0  0
   -2.7164    0.0032   10.9445 H   0  0  0  0  0  0  0  0  0  0  0  0
   -1.7461   -0.8264   12.1881 H   0  0  0  0  0  0  0  0  0  0  0  0
    0.6166   -0.7765   11.8894 H   0  0  0  0  0  0  0  0  0  0  0  0
    0.3933   -1.8334   10.5003 H   0  0  0  0  0  0  0  0  0  0  0  0
    1.2148   -0.2904   10.3017 H   0  0  0  0  0  0  0  0  0  0  0  0
  1  2  1  0  0  0  0
  1 46  1  0  0  0  0
  1 56  1  0  0  0  0
  2  3  1  0  0  0  0
  2 50  1  0  0  0  0
  3  4  1  0  0  0  0
  3 57  1  0  0  0  0
  4  5  1  0  0  0  0
  4 45  1  0  0  0  0
  5  6  1  0  0  0  0
  5 12  1  0  0  0  0
  5 47  1  0  0  0  0
  6  7  1  0  0  0  0
  6 11  1  0  0  0  0
  7  8  1  0  0  0  0
  7 58  1  0  0  0  0
  8  9  1  0  0  0  0
  8 49  1  0  0  0  0
  9 10  1  0  0  0  0
  9 59  1  0  0  0  0
 10 11  1  0  0  0  0
 10 48  1  0  0  0  0
 11 60  1  0  0  0  0
 12 13  1  0  0  0  0
 12 44  1  0  0  0  0
 13 14  1  0  0  0  0
 13 37  1  0  0  0  0
 14 15  1  0  0  0  0
 14 36  1  0  0  0  0
 15 16  1  0  0  0  0
 15 29  1  0  0  0  0
 16 17  1  0  0  0  0
 16 23  1  0  0  0  0
 17 18  1  0  0  0  0
 17 22  1  0  0  0  0
 18 19  1  0  0  0  0
 18 61  1  0  0  0  0
 19 20  1  0  0  0  0
 19 54  1  0  0  0  0
 20 21  1  0  0  0  0
 20 62  1  0  0  0  0
 21 22  1  0  0  0  0
 21 55  1  0  0  0  0
 22 63  1  0  0  0  0
 23 24  1  0  0  0  0
 23 28  1  0  0  0  0
 24 25  1  0  0  0  0
 24 64  1  0  0  0  0
 25 26  1  0  0  0  0
 25 52  1  0  0  0  0
 26 27  1  0  0  0  0
 26 65  1  0  0  0  0
 27 28  1  0  0  0  0
 27 53  1  0  0  0  0
 28 66  1  0  0  0  0
 29 30  1  0  0  0  0
 29 67  1  0  0  0  0
 30 31  1  0  0  0  0
 30 68  1  0  0  0  0
 31 32  1  0  0  0  0
 31 36  1  0  0  0  0
 32 33  1  0  0  0  0
 32 69  1  0  0  0  0
 33 34  1  0  0  0  0
 33 70  1  0  0  0  0
 34 35  1  0  0  0  0
 34 71  1  0  0  0  0
 35 36  1  0  0  0  0
 35 72  1  0  0  0  0
 37 38  1  0  0  0  0
 37 42  1  0  0  0  0
 38 39  1  0  0  0  0
 38 73  1  0  0  0  0
 39 40  1  0  0  0  0
 39 74  1  0  0  0  0
 40 41  1  0  0  0  0
 40 75  1  0  0  0  0
 41 42  1  0  0  0  0
 41 76  1  0  0  0  0
 42 43  1  0  0  0  0
 43 44  1  0  0  0  0
 43 77  1  0  0  0  0
 44 78  1  0  0  0  0
 45 46  1  0  0  0  0
 45 79  1  0  0  0  0
 46 51  1  0  0  0  0
 47 16  1  0  0  0  0
 47121  1  0  0  0  0
 48 80  1  0  0  0  0
 48 81  1  0  0  0  0
 48 82  1  0  0  0  0
 49 83  1  0  0  0  0
 49 84  1  0  0  0  0
 49 85  1  0  0  0  0
 50 86  1  0  0  0  0
 50 87  1  0  0  0  0
 50 88  1  0  0  0  0
 51 89  1  0  0  0  0
 51 90  1  0  0  0  0
 51 91  1  0  0  0  0
 52 92  1  0  0  0  0
 52 93  1  0  0  0  0
 52 94  1  0  0  0  0
 53 95  1  0  0  0  0
 53 96  1  0  0  0  0
 53 97  1  0  0  0  0
 54 98  1  0  0  0  0
 54 99  1  0  0  0  0
 54100  1  0  0  0  0
 55101  1  0  0  0  0
 55102  1  0  0  0  0
 55103  1  0  0  0  0
104105  1  0  0  0  0
104127  1  0  0  0  0
104128  1  0  0  0  0
104129  1  0  0  0  0
105106  1  0  0  0  0
106107  1  0  0  0  0
106126  1  0  0  0  0
107108  1  0  0  0  0
107130  1  0  0  0  0
108109  1  0  0  0  0
108131  1  0  0  0  0
109110  1  0  0  0  0
109125  1  0  0  0  0
110111  1  0  0  0  0
110112  1  0  0  0  0
110120  1  0  0  0  0
111132  1  0  0  0  0
111133  1  0  0  0  0
111 47  1  0  0  0  0
112113  1  0  0  0  0
112119  1  0  0  0  0
113114  1  0  0  0  0
113134  1  0  0  0  0
114115  1  0  0  0  0
114135  1  0  0  0  0
115116  1  0  0  0  0
115118  1  0  0  0  0
116117  1  0  0  0  0
117136  1  0  0  0  0
117137  1  0  0  0  0
117138  1  0  0  0  0
118119  1  0  0  0  0
118139  1  0  0  0  0
119140  1  0  0  0  0
120121  1  0  0  0  0
120122  1  0  0  0  0
120141  1  0  0  0  0
121142  1  0  0  0  0
121143  1  0  0  0  0
122123  1  0  0  0  0
122124  1  0  0  0  0
122144  1  0  0  0  0
123145  1  0  0  0  0
123146  1  0  0  0  0
123147  1  0  0  0  0
124148  1  0  0  0  0
124149  1  0  0  0  0
124150  1  0  0  0  0
125126  1  0  0  0  0
125151  1  0  0  0  0
126152  1  0  0  0  0
153 47  1  0  0  0  0
154 47  1  0  0  0  0
155156  2  0  0  0  0
155143  1  0  0  0  0
156157  1  0  0  0  0
156163  1  0  0  0  0
156153  1  0  0  0  0
157158  1  0  0  0  0
157162  1  0  0  0  0
158159  1  0  0  0  0
158181  1  0  0  0  0
159160  1  0  0  0  0
159182  1  0  0  0  0
160161  1  0  0  0  0
160183  1  0  0  0  0
161162  1  0  0  0  0
161184  1  0  0  0  0
162185  1  0  0  0  0
163164  1  0  0  0  0
163180  1  0  0  0  0
164165  1  0  0  0  0
164186  1  0  0  0  0
165166  1  0  0  0  0
166167  1  0  0  0  0
166180  1  0  0  0  0
167168  1  0  0  0  0
167172  1  0  0  0  0
167176  1  0  0  0  0
168169  1  0  0  0  0
168170  1  0  0  0  0
168171  1  0  0  0  0
172173  1  0  0  0  0
172174  1  0  0  0  0
172175  1  0  0  0  0
176177  1  0  0  0  0
177178  1  0  0  0  0
177187  1  0  0  0  0
177188  1  0  0  0  0
178179  1  0  0  0  0
179189  1  0  0  0  0
179190  1  0  0  0  0
179191  1  0  0  0  0
M  END
