 energy: -290.940409605799 gnorm: 0.000979689576 xtb: 6.7.1 (edcfbbe)
          07072520353D

207222  0     0  0            999 V2000
    1.8202    3.5373    0.8450 C   0  0  0  0  0  3  0  0  0  0  0  0
    2.3870    3.7565    2.1506 C   0  0  0  0  0  3  0  0  0  0  0  0
    2.4637    2.6515    3.0793 C   0  0  0  0  0  3  0  0  0  0  0  0
    1.9891    1.3420    2.7258 C   0  0  0  0  0  3  0  0  0  0  0  0
    1.7683    0.0049    3.9566 P   0  0  0  0  0  4  0  0  0  0  0  0
    3.1681    0.4098    5.1094 C   0  0  0  0  0  3  0  0  0  0  0  0
    3.0298    1.5335    5.9937 C   0  0  0  0  0  3  0  0  0  0  0  0
    4.0666    1.8640    6.9404 C   0  0  0  0  0  3  0  0  0  0  0  0
    5.2413    1.0403    6.9958 C   0  0  0  0  0  3  0  0  0  0  0  0
    5.4066   -0.0852    6.1268 C   0  0  0  0  0  3  0  0  0  0  0  0
    4.3698   -0.3961    5.1764 C   0  0  0  0  0  3  0  0  0  0  0  0
    2.4627   -1.4875    3.0621 C   0  0  0  0  0  3  0  0  0  0  0  0
    2.2111   -2.8666    3.4692 C   0  0  0  0  0  3  0  0  0  0  0  0
    1.5612   -3.3124    4.7493 C   0  0  0  0  0  3  0  0  0  0  0  0
    0.1231   -3.3692    4.9197 C   0  0  0  0  0  3  0  0  0  0  0  0
   -0.9132   -2.3523    3.8118 P   0  0  0  0  0  4  0  0  0  0  0  0
   -0.4941   -3.1847    2.2233 C   0  0  0  0  0  3  0  0  0  0  0  0
   -0.2612   -2.4126    1.0443 C   0  0  0  0  0  3  0  0  0  0  0  0
    0.1054   -3.0486   -0.1917 C   0  0  0  0  0  3  0  0  0  0  0  0
    0.1902   -4.4819   -0.2287 C   0  0  0  0  0  3  0  0  0  0  0  0
   -0.0836   -5.2808    0.9346 C   0  0  0  0  0  3  0  0  0  0  0  0
   -0.4095   -4.6220    2.1673 C   0  0  0  0  0  3  0  0  0  0  0  0
   -2.6381   -2.9470    4.0678 C   0  0  0  0  0  3  0  0  0  0  0  0
   -3.3480   -2.3687    5.1832 C   0  0  0  0  0  3  0  0  0  0  0  0
   -4.7484   -2.6207    5.3779 C   0  0  0  0  0  3  0  0  0  0  0  0
   -5.4382   -3.4523    4.4339 C   0  0  0  0  0  3  0  0  0  0  0  0
   -4.7569   -4.0261    3.3092 C   0  0  0  0  0  3  0  0  0  0  0  0
   -3.3565   -3.7620    3.1276 C   0  0  0  0  0  3  0  0  0  0  0  0
   -0.4519   -4.0873    6.0385 C   0  0  0  0  0  3  0  0  0  0  0  0
    0.3740   -4.7350    6.9970 C   0  0  0  0  0  3  0  0  0  0  0  0
    1.8183   -4.6393    6.9007 C   0  0  0  0  0  3  0  0  0  0  0  0
    2.6730   -5.2463    7.9089 C   0  0  0  0  0  3  0  0  0  0  0  0
    4.0840   -5.1835    7.7918 C   0  0  0  0  0  3  0  0  0  0  0  0
    4.6837   -4.5289    6.6548 C   0  0  0  0  0  3  0  0  0  0  0  0
    3.8743   -3.9261    5.6590 C   0  0  0  0  0  3  0  0  0  0  0  0
    2.4218   -3.9530    5.7656 C   0  0  0  0  0  3  0  0  0  0  0  0
    2.7369   -3.9618    2.6294 C   0  0  0  0  0  3  0  0  0  0  0  0
    2.5170   -5.3574    2.9806 C   0  0  0  0  0  3  0  0  0  0  0  0
    3.0204   -6.4030    2.1641 C   0  0  0  0  0  3  0  0  0  0  0  0
    3.7405   -6.1063    0.9478 C   0  0  0  0  0  3  0  0  0  0  0  0
    3.9599   -4.7569    0.5736 C   0  0  0  0  0  3  0  0  0  0  0  0
    3.4754   -3.6703    1.4099 C   0  0  0  0  0  3  0  0  0  0  0  0
    3.7654   -2.2909    1.0686 C   0  0  0  0  0  3  0  0  0  0  0  0
    3.2805   -1.2361    1.8862 C   0  0  0  0  0  3  0  0  0  0  0  0
    1.4540    1.1463    1.4021 C   0  0  0  0  0  3  0  0  0  0  0  0
    1.3667    2.2293    0.4534 C   0  0  0  0  0  3  0  0  0  0  0  0
   -0.7965    0.1075    4.1916 Ru  0  0  0  0  0  0  0  0  0  0  0  0
    6.6250   -0.9614    6.2173 C   0  0  0  0  0  0  0  0  0  0  0  0
    3.9149    3.0581    7.8446 C   0  0  0  0  0  0  0  0  0  0  0  0
    2.9102    5.1118    2.5505 C   0  0  0  0  0  0  0  0  0  0  0  0
    0.8087    1.9749   -0.9227 C   0  0  0  0  0  0  0  0  0  0  0  0
   -5.4754   -1.9898    6.5368 C   0  0  0  0  0  0  0  0  0  0  0  0
   -5.4988   -4.9026    2.3365 C   0  0  0  0  0  0  0  0  0  0  0  0
    0.3631   -2.2227   -1.4210 C   0  0  0  0  0  0  0  0  0  0  0  0
   -0.0432   -6.7836    0.8447 C   0  0  0  0  0  0  0  0  0  0  0  0
    1.7463    4.3691    0.1444 H   0  0  0  0  0  0  0  0  0  0  0  0
    2.9172    2.8323    4.0525 H   0  0  0  0  0  0  0  0  0  0  0  0
    2.1394    2.1379    5.9608 H   0  0  0  0  0  0  0  0  0  0  0  0
    6.0217    1.2771    7.7195 H   0  0  0  0  0  0  0  0  0  0  0  0
    4.4895   -1.2389    4.4994 H   0  0  0  0  0  0  0  0  0  0  0  0
   -0.3708   -1.3305    1.1104 H   0  0  0  0  0  0  0  0  0  0  0  0
    0.4619   -4.9796   -1.1600 H   0  0  0  0  0  0  0  0  0  0  0  0
   -0.5986   -5.2079    3.0653 H   0  0  0  0  0  0  0  0  0  0  0  0
   -2.8080   -1.7318    5.8796 H   0  0  0  0  0  0  0  0  0  0  0  0
   -6.5042   -3.6450    4.5683 H   0  0  0  0  0  0  0  0  0  0  0  0
   -2.8406   -4.1798    2.2653 H   0  0  0  0  0  0  0  0  0  0  0  0
   -1.5360   -4.1367    6.1285 H   0  0  0  0  0  0  0  0  0  0  0  0
   -0.0729   -5.2965    7.8176 H   0  0  0  0  0  0  0  0  0  0  0  0
    2.2087   -5.7480    8.7581 H   0  0  0  0  0  0  0  0  0  0  0  0
    4.7196   -5.6373    8.5526 H   0  0  0  0  0  0  0  0  0  0  0  0
    5.7697   -4.5055    6.5598 H   0  0  0  0  0  0  0  0  0  0  0  0
    4.3366   -3.4494    4.7961 H   0  0  0  0  0  0  0  0  0  0  0  0
    1.9666   -5.6041    3.8867 H   0  0  0  0  0  0  0  0  0  0  0  0
    2.8579   -7.4412    2.4533 H   0  0  0  0  0  0  0  0  0  0  0  0
    4.1140   -6.9192    0.3258 H   0  0  0  0  0  0  0  0  0  0  0  0
    4.5034   -4.5142   -0.3399 H   0  0  0  0  0  0  0  0  0  0  0  0
    4.3703   -2.0701    0.1887 H   0  0  0  0  0  0  0  0  0  0  0  0
    3.5369   -0.2119    1.6379 H   0  0  0  0  0  0  0  0  0  0  0  0
    1.1064    0.1563    1.1111 H   0  0  0  0  0  0  0  0  0  0  0  0
    6.3888   -1.8598    6.8048 H   0  0  0  0  0  0  0  0  0  0  0  0
    7.4542   -0.4337    6.7079 H   0  0  0  0  0  0  0  0  0  0  0  0
    6.9469   -1.2843    5.2180 H   0  0  0  0  0  0  0  0  0  0  0  0
    2.8538    3.2805    8.0188 H   0  0  0  0  0  0  0  0  0  0  0  0
    4.3807    3.9417    7.3868 H   0  0  0  0  0  0  0  0  0  0  0  0
    4.4061    2.8787    8.8113 H   0  0  0  0  0  0  0  0  0  0  0  0
    2.4474    5.9048    1.9477 H   0  0  0  0  0  0  0  0  0  0  0  0
    3.9978    5.1543    2.3950 H   0  0  0  0  0  0  0  0  0  0  0  0
    2.7137    5.3097    3.6132 H   0  0  0  0  0  0  0  0  0  0  0  0
   -0.0335    1.2719   -0.8622 H   0  0  0  0  0  0  0  0  0  0  0  0
    1.5814    1.5349   -1.5685 H   0  0  0  0  0  0  0  0  0  0  0  0
    0.4665    2.9106   -1.3852 H   0  0  0  0  0  0  0  0  0  0  0  0
   -6.4103   -2.5267    6.7475 H   0  0  0  0  0  0  0  0  0  0  0  0
   -5.7238   -0.9419    6.3126 H   0  0  0  0  0  0  0  0  0  0  0  0
   -4.8396   -2.0014    7.4316 H   0  0  0  0  0  0  0  0  0  0  0  0
   -5.5795   -5.9235    2.7359 H   0  0  0  0  0  0  0  0  0  0  0  0
   -4.9698   -4.9506    1.3752 H   0  0  0  0  0  0  0  0  0  0  0  0
   -6.5161   -4.5233    2.1676 H   0  0  0  0  0  0  0  0  0  0  0  0
    0.9763   -1.3462   -1.1711 H   0  0  0  0  0  0  0  0  0  0  0  0
   -0.5910   -1.8687   -1.8352 H   0  0  0  0  0  0  0  0  0  0  0  0
    0.8796   -2.8134   -2.1898 H   0  0  0  0  0  0  0  0  0  0  0  0
   -0.8921   -7.1508    0.2505 H   0  0  0  0  0  0  0  0  0  0  0  0
   -0.0957   -7.2343    1.8450 H   0  0  0  0  0  0  0  0  0  0  0  0
    0.8829   -7.1123    0.3545 H   0  0  0  0  0  0  0  0  0  0  0  0
   -2.5987   -0.0329   -3.2532 C   0  0  0  0  0  0  0  0  0  0  0  0
   -2.8337   -0.7757   -2.0942 O   0  0  0  0  0  0  0  0  0  0  0  0
   -2.8860   -0.1110   -0.8928 C   0  0  0  0  0  3  0  0  0  0  0  0
   -3.1318   -0.8886    0.2376 C   0  0  0  0  0  3  0  0  0  0  0  0
   -3.1917   -0.3128    1.4981 C   0  0  0  0  0  3  0  0  0  0  0  0
   -2.9792    1.0596    1.6731 C   0  0  0  0  0  3  0  0  0  0  0  0
   -3.0509    1.7368    3.0593 C   0  0  0  0  0  0  0  0  0  0  0  0
   -2.8808    0.7031    4.1090 N   0  0  0  0  0  4  0  0  0  0  0  0
   -4.4595    2.3547    3.2300 C   0  0  0  0  0  3  0  0  0  0  0  0
   -5.3671    2.4800    2.1762 C   0  0  0  0  0  3  0  0  0  0  0  0
   -6.6327    3.0130    2.3680 C   0  0  0  0  0  3  0  0  0  0  0  0
   -7.0350    3.4346    3.6386 C   0  0  0  0  0  3  0  0  0  0  0  0
   -8.2555    3.9795    3.9356 O   0  0  0  0  0  0  0  0  0  0  0  0
   -9.1722    4.1636    2.9000 C   0  0  0  0  0  0  0  0  0  0  0  0
   -6.1466    3.2938    4.7032 C   0  0  0  0  0  3  0  0  0  0  0  0
   -4.8872    2.7592    4.5004 C   0  0  0  0  0  3  0  0  0  0  0  0
   -1.8570    2.7552    3.2225 C   0  0  0  0  0  0  0  0  0  0  0  0
   -0.9021    2.2412    4.2101 N   0  0  0  0  0  4  0  0  0  0  0  0
   -2.2371    4.2388    3.5496 C   0  0  0  0  0  0  0  0  0  0  0  0
   -0.9811    5.0255    3.9851 C   0  0  0  0  0  0  0  0  0  0  0  0
   -2.8571    4.9477    2.3445 C   0  0  0  0  0  0  0  0  0  0  0  0
   -2.7602    1.8269    0.5311 C   0  0  0  0  0  3  0  0  0  0  0  0
   -2.7152    1.2633   -0.7354 C   0  0  0  0  0  3  0  0  0  0  0  0
   -2.5900   -0.7577   -4.0794 H   0  0  0  0  0  0  0  0  0  0  0  0
   -1.6275    0.4849   -3.2212 H   0  0  0  0  0  0  0  0  0  0  0  0
   -3.3962    0.7071   -3.4366 H   0  0  0  0  0  0  0  0  0  0  0  0
   -3.2642   -1.9534    0.1178 H   0  0  0  0  0  0  0  0  0  0  0  0
   -3.3725   -0.9733    2.3308 H   0  0  0  0  0  0  0  0  0  0  0  0
   -3.0101    1.1398    5.0339 H   0  0  0  0  0  0  0  0  0  0  0  0
   -3.6204   -0.0083    4.0165 H   0  0  0  0  0  0  0  0  0  0  0  0
   -5.0922    2.1598    1.1861 H   0  0  0  0  0  0  0  0  0  0  0  0
   -7.2958    3.0920    1.5207 H   0  0  0  0  0  0  0  0  0  0  0  0
   -9.4670    3.2074    2.4364 H   0  0  0  0  0  0  0  0  0  0  0  0
   -8.7818    4.8365    2.1214 H   0  0  0  0  0  0  0  0  0  0  0  0
  -10.0575    4.6246    3.3595 H   0  0  0  0  0  0  0  0  0  0  0  0
   -6.4603    3.6111    5.6873 H   0  0  0  0  0  0  0  0  0  0  0  0
   -4.2323    2.6647    5.3512 H   0  0  0  0  0  0  0  0  0  0  0  0
   -1.3117    2.7631    2.2630 H   0  0  0  0  0  0  0  0  0  0  0  0
    0.0244    2.6472    4.0149 H   0  0  0  0  0  0  0  0  0  0  0  0
   -1.1661    2.5411    5.1620 H   0  0  0  0  0  0  0  0  0  0  0  0
   -2.9595    4.2613    4.3847 H   0  0  0  0  0  0  0  0  0  0  0  0
   -0.1796    4.9098    3.2508 H   0  0  0  0  0  0  0  0  0  0  0  0
   -0.6212    4.7070    4.9718 H   0  0  0  0  0  0  0  0  0  0  0  0
   -1.2299    6.0928    4.0575 H   0  0  0  0  0  0  0  0  0  0  0  0
   -2.1340    5.0055    1.5260 H   0  0  0  0  0  0  0  0  0  0  0  0
   -3.1404    5.9728    2.6209 H   0  0  0  0  0  0  0  0  0  0  0  0
   -3.7595    4.4331    1.9925 H   0  0  0  0  0  0  0  0  0  0  0  0
   -2.6279    2.8807    0.6094 H   0  0  0  0  0  0  0  0  0  0  0  0
   -2.5466    1.9073   -1.5846 H   0  0  0  0  0  0  0  0  0  0  0  0
   -1.0274    0.1396    5.9162 H   0  0  0  0  0  0  0  0  0  0  0  0
   -0.7079    0.2216    2.6418 H   0  0  0  0  0  0  0  0  0  0  0  0
   -1.3945    2.1866    7.0313 O   0  0  0  0  0  0  0  0  0  0  0  0
   -1.1045    1.0234    7.3934 C   0  0  0  0  0  0  0  0  0  0  0  0
    0.3050    0.7311    7.8439 C   0  0  0  0  0  0  0  0  0  0  0  0
    0.5767   -0.6462    8.4619 C   0  0  0  0  0  0  0  0  0  0  0  0
    0.5530   -0.5571    9.9872 C   0  0  0  0  0  0  0  0  0  0  0  0
    1.9434   -1.1540    8.0133 C   0  0  0  0  0  0  0  0  0  0  0  0
   -0.4870   -1.6441    7.9903 C   0  0  0  0  0  0  0  0  0  0  0  0
   -1.8279   -1.1163    8.3948 C   0  0  0  0  0  3  0  0  0  0  0  0
   -2.6388   -1.9148    9.0924 N   0  0  0  0  0  2  0  0  0  0  0  0
   -3.7464   -1.3990    9.6559 C   0  0  0  0  0  3  0  0  0  0  0  0
   -4.5613   -2.3979   10.4572 C   0  0  0  0  0  0  0  0  0  0  0  0
   -4.1164   -2.3243   11.9118 C   0  0  0  0  0  0  0  0  0  0  0  0
   -6.0676   -2.2075   10.3452 C   0  0  0  0  0  0  0  0  0  0  0  0
   -3.9984   -0.0170    9.5667 C   0  0  0  0  0  3  0  0  0  0  0  0
   -5.1096    0.6463   10.3465 C   0  0  0  0  0  0  0  0  0  0  0  0
   -6.1262    1.0996    9.4933 O   0  0  0  0  0  0  0  0  0  0  0  0
   -7.2198    1.7289   10.1377 C   0  0  0  0  0  0  0  0  0  0  0  0
   -5.1596    0.8178   11.5757 O   0  0  0  0  0  0  0  0  0  0  0  0
   -3.1831    0.7861    8.8177 C   0  0  0  0  0  3  0  0  0  0  0  0
   -3.3703    2.2793    8.9689 C   0  0  0  0  0  0  0  0  0  0  0  0
   -2.8945    2.8758   10.0529 C   0  0  0  0  0  0  0  0  0  0  0  0
   -3.0918    4.3379   10.3349 C   0  0  0  0  0  0  0  0  0  0  0  0
   -3.6916    5.0659    9.2405 O   0  0  0  0  0  0  0  0  0  0  0  0
   -4.7178    4.3093    8.6036 C   0  0  0  0  0  0  0  0  0  0  0  0
   -4.1415    3.0529    7.9503 C   0  0  0  0  0  0  0  0  0  0  0  0
   -2.0979    0.2230    8.1359 C   0  0  0  0  0  3  0  0  0  0  0  0
    0.9623    0.8678    7.0043 H   0  0  0  0  0  0  0  0  0  0  0  0
    0.5354    1.4991    8.5626 H   0  0  0  0  0  0  0  0  0  0  0  0
   -0.3817   -0.1564   10.3363 H   0  0  0  0  0  0  0  0  0  0  0  0
    0.6837   -1.5331   10.4191 H   0  0  0  0  0  0  0  0  0  0  0  0
    1.3485    0.0776   10.3344 H   0  0  0  0  0  0  0  0  0  0  0  0
    2.1606   -2.1043    8.4669 H   0  0  0  0  0  0  0  0  0  0  0  0
    1.9621   -1.2805    6.9455 H   0  0  0  0  0  0  0  0  0  0  0  0
    2.7170   -0.4587    8.2853 H   0  0  0  0  0  0  0  0  0  0  0  0
   -0.4278   -1.7155    6.9182 H   0  0  0  0  0  0  0  0  0  0  0  0
   -0.3341   -2.6157    8.4257 H   0  0  0  0  0  0  0  0  0  0  0  0
   -4.2965   -3.3660   10.0643 H   0  0  0  0  0  0  0  0  0  0  0  0
   -4.3332   -1.3528   12.3178 H   0  0  0  0  0  0  0  0  0  0  0  0
   -4.6342   -3.0666   12.4925 H   0  0  0  0  0  0  0  0  0  0  0  0
   -3.0586   -2.5017   11.9861 H   0  0  0  0  0  0  0  0  0  0  0  0
   -6.3704   -2.0835    9.3211 H   0  0  0  0  0  0  0  0  0  0  0  0
   -6.5665   -3.0706   10.7484 H   0  0  0  0  0  0  0  0  0  0  0  0
   -6.3877   -1.3499   10.9086 H   0  0  0  0  0  0  0  0  0  0  0  0
   -7.8516    0.9902   10.5989 H   0  0  0  0  0  0  0  0  0  0  0  0
   -6.8697    2.4099   10.8934 H   0  0  0  0  0  0  0  0  0  0  0  0
   -7.7601    2.2534    9.3702 H   0  0  0  0  0  0  0  0  0  0  0  0
   -2.3549    2.3356   10.8061 H   0  0  0  0  0  0  0  0  0  0  0  0
   -2.1469    4.8232   10.5088 H   0  0  0  0  0  0  0  0  0  0  0  0
   -3.7085    4.4445   11.2121 H   0  0  0  0  0  0  0  0  0  0  0  0
   -5.4716    4.0382    9.3237 H   0  0  0  0  0  0  0  0  0  0  0  0
   -5.1412    4.9713    7.8677 H   0  0  0  0  0  0  0  0  0  0  0  0
   -4.9351    2.4490    7.5453 H   0  0  0  0  0  0  0  0  0  0  0  0
   -3.4536    3.3448    7.1754 H   0  0  0  0  0  0  0  0  0  0  0  0
  1  2  1  0  0  0  0
  1 46  1  0  0  0  0
  1 56  1  0  0  0  0
  2  3  1  0  0  0  0
  2 50  1  0  0  0  0
  3  4  1  0  0  0  0
  3 57  1  0  0  0  0
  4  5  1  0  0  0  0
  4 45  1  0  0  0  0
  5  6  1  0  0  0  0
  5 12  1  0  0  0  0
  5 47  1  0  0  0  0
  6  7  1  0  0  0  0
  6 11  1  0  0  0  0
  7  8  1  0  0  0  0
  7 58  1  0  0  0  0
  8  9  1  0  0  0  0
  8 49  1  0  0  0  0
  9 10  1  0  0  0  0
  9 59  1  0  0  0  0
 10 11  1  0  0  0  0
 10 48  1  0  0  0  0
 11 60  1  0  0  0  0
 12 13  1  0  0  0  0
 12 44  1  0  0  0  0
 13 14  1  0  0  0  0
 13 37  1  0  0  0  0
 14 15  1  0  0  0  0
 14 36  1  0  0  0  0
 15 16  1  0  0  0  0
 15 29  1  0  0  0  0
 16 17  1  0  0  0  0
 16 23  1  0  0  0  0
 17 18  1  0  0  0  0
 17 22  1  0  0  0  0
 18 19  1  0  0  0  0
 18 61  1  0  0  0  0
 19 20  1  0  0  0  0
 19 54  1  0  0  0  0
 20 21  1  0  0  0  0
 20 62  1  0  0  0  0
 21 22  1  0  0  0  0
 21 55  1  0  0  0  0
 22 63  1  0  0  0  0
 23 24  1  0  0  0  0
 23 28  1  0  0  0  0
 24 25  1  0  0  0  0
 24 64  1  0  0  0  0
 25 26  1  0  0  0  0
 25 52  1  0  0  0  0
 26 27  1  0  0  0  0
 26 65  1  0  0  0  0
 27 28  1  0  0  0  0
 27 53  1  0  0  0  0
 28 66  1  0  0  0  0
 29 30  1  0  0  0  0
 29 67  1  0  0  0  0
 30 31  1  0  0  0  0
 30 68  1  0  0  0  0
 31 32  1  0  0  0  0
 31 36  1  0  0  0  0
 32 33  1  0  0  0  0
 32 69  1  0  0  0  0
 33 34  1  0  0  0  0
 33 70  1  0  0  0  0
 34 35  1  0  0  0  0
 34 71  1  0  0  0  0
 35 36  1  0  0  0  0
 35 72  1  0  0  0  0
 37 38  1  0  0  0  0
 37 42  1  0  0  0  0
 38 39  1  0  0  0  0
 38 73  1  0  0  0  0
 39 40  1  0  0  0  0
 39 74  1  0  0  0  0
 40 41  1  0  0  0  0
 40 75  1  0  0  0  0
 41 42  1  0  0  0  0
 41 76  1  0  0  0  0
 42 43  1  0  0  0  0
 43 44  1  0  0  0  0
 43 77  1  0  0  0  0
 44 78  1  0  0  0  0
 45 46  1  0  0  0  0
 45 79  1  0  0  0  0
 46 51  1  0  0  0  0
 47 16  1  0  0  0  0
 47121  1  0  0  0  0
 48 80  1  0  0  0  0
 48 81  1  0  0  0  0
 48 82  1  0  0  0  0
 49 83  1  0  0  0  0
 49 84  1  0  0  0  0
 49 85  1  0  0  0  0
 50 86  1  0  0  0  0
 50 87  1  0  0  0  0
 50 88  1  0  0  0  0
 51 89  1  0  0  0  0
 51 90  1  0  0  0  0
 51 91  1  0  0  0  0
 52 92  1  0  0  0  0
 52 93  1  0  0  0  0
 52 94  1  0  0  0  0
 53 95  1  0  0  0  0
 53 96  1  0  0  0  0
 53 97  1  0  0  0  0
 54 98  1  0  0  0  0
 54 99  1  0  0  0  0
 54100  1  0  0  0  0
 55101  1  0  0  0  0
 55102  1  0  0  0  0
 55103  1  0  0  0  0
104105  1  0  0  0  0
104127  1  0  0  0  0
104128  1  0  0  0  0
104129  1  0  0  0  0
105106  1  0  0  0  0
106107  1  0  0  0  0
106126  1  0  0  0  0
107108  1  0  0  0  0
107130  1  0  0  0  0
108109  1  0  0  0  0
108131  1  0  0  0  0
109110  1  0  0  0  0
109125  1  0  0  0  0
110111  1  0  0  0  0
110112  1  0  0  0  0
110120  1  0  0  0  0
111132  1  0  0  0  0
111133  1  0  0  0  0
111 47  1  0  0  0  0
112113  1  0  0  0  0
112119  1  0  0  0  0
113114  1  0  0  0  0
113134  1  0  0  0  0
114115  1  0  0  0  0
114135  1  0  0  0  0
115116  1  0  0  0  0
115118  1  0  0  0  0
116117  1  0  0  0  0
117136  1  0  0  0  0
117137  1  0  0  0  0
117138  1  0  0  0  0
118119  1  0  0  0  0
118139  1  0  0  0  0
119140  1  0  0  0  0
120121  1  0  0  0  0
120122  1  0  0  0  0
120141  1  0  0  0  0
121142  1  0  0  0  0
121143  1  0  0  0  0
122123  1  0  0  0  0
122124  1  0  0  0  0
122144  1  0  0  0  0
123145  1  0  0  0  0
123146  1  0  0  0  0
123147  1  0  0  0  0
124148  1  0  0  0  0
124149  1  0  0  0  0
124150  1  0  0  0  0
125126  1  0  0  0  0
125151  1  0  0  0  0
126152  1  0  0  0  0
153 47  1  0  0  0  0
154 47  1  0  0  0  0
155156  2  0  0  0  0
155143  1  0  0  0  0
156157  1  0  0  0  0
156180  1  0  0  0  0
156153  1  0  0  0  0
157158  1  0  0  0  0
157181  1  0  0  0  0
157182  1  0  0  0  0
158159  1  0  0  0  0
158160  1  0  0  0  0
158161  1  0  0  0  0
159183  1  0  0  0  0
159184  1  0  0  0  0
159185  1  0  0  0  0
160186  1  0  0  0  0
160187  1  0  0  0  0
160188  1  0  0  0  0
161162  1  0  0  0  0
161189  1  0  0  0  0
161190  1  0  0  0  0
162163  1  0  0  0  0
162180  1  0  0  0  0
163164  1  0  0  0  0
164165  1  0  0  0  0
164168  1  0  0  0  0
165166  1  0  0  0  0
165167  1  0  0  0  0
165191  1  0  0  0  0
166192  1  0  0  0  0
166193  1  0  0  0  0
166194  1  0  0  0  0
167195  1  0  0  0  0
167196  1  0  0  0  0
167197  1  0  0  0  0
168169  1  0  0  0  0
168173  1  0  0  0  0
169170  1  0  0  0  0
169172  2  0  0  0  0
170171  1  0  0  0  0
171198  1  0  0  0  0
171199  1  0  0  0  0
171200  1  0  0  0  0
173174  1  0  0  0  0
173180  1  0  0  0  0
174175  2  0  0  0  0
174179  1  0  0  0  0
175176  1  0  0  0  0
175201  1  0  0  0  0
176177  1  0  0  0  0
176202  1  0  0  0  0
176203  1  0  0  0  0
177178  1  0  0  0  0
178179  1  0  0  0  0
178204  1  0  0  0  0
178205  1  0  0  0  0
179206  1  0  0  0  0
179207  1  0  0  0  0
M  END
