 energy: -200.449182813885 gnorm: 0.000597118167 xtb: 6.7.1 (edcfbbe)
          07072523013D

140153  0     0  0            999 V2000
    5.8412    0.2036    5.4024 C   0  0  0  0  0  3  0  0  0  0  0  0
    4.6868   -0.1146    6.1015 C   0  0  0  0  0  3  0  0  0  0  0  0
    3.4495    0.2081    5.5718 C   0  0  0  0  0  3  0  0  0  0  0  0
    3.3551    0.8589    4.3461 C   0  0  0  0  0  3  0  0  0  0  0  0
    1.6664    1.2707    3.7238 P   0  0  0  0  0  4  0  0  0  0  0  0
    1.9319    3.0883    3.9735 C   0  0  0  0  0  3  0  0  0  0  0  0
    2.7040    3.9029    3.1480 C   0  0  0  0  0  3  0  0  0  0  0  0
    2.9265    5.2266    3.4892 C   0  0  0  0  0  3  0  0  0  0  0  0
    2.4015    5.7523    4.6603 C   0  0  0  0  0  3  0  0  0  0  0  0
    1.6572    4.9425    5.5031 C   0  0  0  0  0  3  0  0  0  0  0  0
    1.4309    3.6196    5.1575 C   0  0  0  0  0  3  0  0  0  0  0  0
    1.9029    1.0937    1.9132 C   0  0  0  0  0  3  0  0  0  0  0  0
    1.5887    1.9427    0.8656 C   0  0  0  0  0  3  0  0  0  0  0  0
    1.6694    1.4786   -0.4418 C   0  0  0  0  0  3  0  0  0  0  0  0
    2.0083    0.1603   -0.7019 C   0  0  0  0  0  3  0  0  0  0  0  0
    2.2726   -0.7269    0.3348 C   0  0  0  0  0  3  0  0  0  0  0  0
    2.2247   -0.2419    1.6312 C   0  0  0  0  0  3  0  0  0  0  0  0
    2.3543   -0.9174    2.8164 O   0  0  0  0  0  0  0  0  0  0  0  0
    2.7105   -2.2187    3.0315 C   0  0  0  0  0  3  0  0  0  0  0  0
    3.6782   -2.9059    2.3045 C   0  0  0  0  0  3  0  0  0  0  0  0
    4.0070   -4.1981    2.6763 C   0  0  0  0  0  3  0  0  0  0  0  0
    3.3860   -4.7895    3.7652 C   0  0  0  0  0  3  0  0  0  0  0  0
    2.4401   -4.0889    4.4963 C   0  0  0  0  0  3  0  0  0  0  0  0
    2.0962   -2.7849    4.1543 C   0  0  0  0  0  3  0  0  0  0  0  0
    0.7173   -1.8922    5.0290 P   0  0  0  0  0  4  0  0  0  0  0  0
   -0.3764   -3.3388    4.6700 C   0  0  0  0  0  3  0  0  0  0  0  0
   -0.7887   -4.3032    5.5835 C   0  0  0  0  0  3  0  0  0  0  0  0
   -1.5577   -5.3801    5.1686 C   0  0  0  0  0  3  0  0  0  0  0  0
   -1.9158   -5.5190    3.8372 C   0  0  0  0  0  3  0  0  0  0  0  0
   -1.4940   -4.5731    2.9142 C   0  0  0  0  0  3  0  0  0  0  0  0
   -0.7289   -3.4965    3.3292 C   0  0  0  0  0  3  0  0  0  0  0  0
    1.1937   -2.2982    6.7664 C   0  0  0  0  0  3  0  0  0  0  0  0
    2.4831   -2.6387    7.1636 C   0  0  0  0  0  3  0  0  0  0  0  0
    2.7348   -3.0086    8.4750 C   0  0  0  0  0  3  0  0  0  0  0  0
    1.7020   -3.0618    9.3972 C   0  0  0  0  0  3  0  0  0  0  0  0
    0.4251   -2.6743    9.0209 C   0  0  0  0  0  3  0  0  0  0  0  0
    0.1800   -2.2622    7.7224 C   0  0  0  0  0  3  0  0  0  0  0  0
    4.5146    1.1730    3.6468 C   0  0  0  0  0  3  0  0  0  0  0  0
    5.7521    0.8406    4.1748 C   0  0  0  0  0  3  0  0  0  0  0  0
   -0.2541    0.1434    4.4310 Ru  0  0  0  0  0  0  0  0  0  0  0  0
    6.8111   -0.0515    5.8107 H   0  0  0  0  0  0  0  0  0  0  0  0
    4.7523   -0.6199    7.0571 H   0  0  0  0  0  0  0  0  0  0  0  0
    2.5321   -0.0549    6.0843 H   0  0  0  0  0  0  0  0  0  0  0  0
    3.1419    3.5100    2.2386 H   0  0  0  0  0  0  0  0  0  0  0  0
    3.5231    5.8535    2.8375 H   0  0  0  0  0  0  0  0  0  0  0  0
    2.5824    6.7882    4.9185 H   0  0  0  0  0  0  0  0  0  0  0  0
    1.2567    5.3396    6.4278 H   0  0  0  0  0  0  0  0  0  0  0  0
    0.8592    2.9618    5.7987 H   0  0  0  0  0  0  0  0  0  0  0  0
    1.2837    2.9646    1.0537 H   0  0  0  0  0  0  0  0  0  0  0  0
    1.4468    2.1483   -1.2628 H   0  0  0  0  0  0  0  0  0  0  0  0
    2.0462   -0.1941   -1.7244 H   0  0  0  0  0  0  0  0  0  0  0  0
    2.4691   -1.7694    0.1293 H   0  0  0  0  0  0  0  0  0  0  0  0
    4.1791   -2.4254    1.4761 H   0  0  0  0  0  0  0  0  0  0  0  0
    4.7548   -4.7428    2.1139 H   0  0  0  0  0  0  0  0  0  0  0  0
    3.6398   -5.8028    4.0482 H   0  0  0  0  0  0  0  0  0  0  0  0
    1.9605   -4.5633    5.3424 H   0  0  0  0  0  0  0  0  0  0  0  0
   -0.5160   -4.2227    6.6279 H   0  0  0  0  0  0  0  0  0  0  0  0
   -1.8739   -6.1200    5.8937 H   0  0  0  0  0  0  0  0  0  0  0  0
   -2.5151   -6.3628    3.5193 H   0  0  0  0  0  0  0  0  0  0  0  0
   -1.7610   -4.6771    1.8697 H   0  0  0  0  0  0  0  0  0  0  0  0
   -0.4070   -2.7461    2.6173 H   0  0  0  0  0  0  0  0  0  0  0  0
    3.2919   -2.6249    6.4454 H   0  0  0  0  0  0  0  0  0  0  0  0
    3.7420   -3.2717    8.7747 H   0  0  0  0  0  0  0  0  0  0  0  0
    1.8951   -3.3878   10.4116 H   0  0  0  0  0  0  0  0  0  0  0  0
   -0.3825   -2.6912    9.7421 H   0  0  0  0  0  0  0  0  0  0  0  0
   -0.8007   -1.8992    7.4406 H   0  0  0  0  0  0  0  0  0  0  0  0
    4.4538    1.6591    2.6815 H   0  0  0  0  0  0  0  0  0  0  0  0
    6.6529    1.0793    3.6225 H   0  0  0  0  0  0  0  0  0  0  0  0
   -0.2855    0.9535    5.9829 H   0  0  0  0  0  0  0  0  0  0  0  0
   -0.4339   -0.5002    2.9805 H   0  0  0  0  0  0  0  0  0  0  0  0
   -4.3550    5.3178    2.6192 C   0  0  0  0  0  3  0  0  0  0  0  0
   -3.0208    4.9435    2.5203 C   0  0  0  0  0  3  0  0  0  0  0  0
   -2.6320    3.7332    3.0630 C   0  0  0  0  0  3  0  0  0  0  0  0
   -3.5549    2.8845    3.6738 C   0  0  0  0  0  3  0  0  0  0  0  0
   -4.8628    3.3014    3.8483 C   0  0  0  0  0  3  0  0  0  0  0  0
   -5.2585    4.5148    3.2979 C   0  0  0  0  0  3  0  0  0  0  0  0
   -2.8157    1.6947    4.2343 C   0  0  0  0  0  0  0  0  0  0  0  0
   -3.2417    0.2289    4.0833 C   0  0  0  0  0  0  0  0  0  0  0  0
   -2.2859   -0.5164    4.9515 N   0  0  0  0  0  4  0  0  0  0  0  0
   -2.9489   -1.8034    5.2358 C   0  0  0  0  0  0  0  0  0  0  0  0
   -4.4110   -1.4680    5.2172 C   0  0  0  0  0  3  0  0  0  0  0  0
   -4.5993   -0.2847    4.5031 C   0  0  0  0  0  3  0  0  0  0  0  0
   -5.8767    0.1230    4.1648 C   0  0  0  0  0  3  0  0  0  0  0  0
   -6.9588   -0.5979    4.6574 C   0  0  0  0  0  3  0  0  0  0  0  0
   -6.7673   -1.7287    5.4361 C   0  0  0  0  0  3  0  0  0  0  0  0
   -5.4842   -2.1928    5.6983 C   0  0  0  0  0  3  0  0  0  0  0  0
   -1.4764    1.7621    3.5877 N   0  0  0  0  0  4  0  0  0  0  0  0
   -1.2495    3.1736    3.2151 C   0  0  0  0  0  0  0  0  0  0  0  0
   -2.6983    1.8711    5.3128 H   0  0  0  0  0  0  0  0  0  0  0  0
   -3.0828   -0.0921    3.0420 H   0  0  0  0  0  0  0  0  0  0  0  0
   -1.5715    1.2742    2.6945 H   0  0  0  0  0  0  0  0  0  0  0  0
   -2.3104   -0.0512    5.8696 H   0  0  0  0  0  0  0  0  0  0  0  0
   -4.6829    6.2581    2.1946 H   0  0  0  0  0  0  0  0  0  0  0  0
   -2.2954    5.5919    2.0459 H   0  0  0  0  0  0  0  0  0  0  0  0
   -5.5631    2.7173    4.4280 H   0  0  0  0  0  0  0  0  0  0  0  0
   -6.2836    4.8423    3.4170 H   0  0  0  0  0  0  0  0  0  0  0  0
   -2.7442   -2.5189    4.4331 H   0  0  0  0  0  0  0  0  0  0  0  0
   -2.6035   -2.2240    6.1821 H   0  0  0  0  0  0  0  0  0  0  0  0
   -6.0430    0.9634    3.5067 H   0  0  0  0  0  0  0  0  0  0  0  0
   -7.9642   -0.2762    4.4165 H   0  0  0  0  0  0  0  0  0  0  0  0
   -7.6240   -2.2718    5.8145 H   0  0  0  0  0  0  0  0  0  0  0  0
   -5.3258   -3.1073    6.2551 H   0  0  0  0  0  0  0  0  0  0  0  0
   -0.7238    3.7018    4.0162 H   0  0  0  0  0  0  0  0  0  0  0  0
   -0.6379    3.2387    2.3116 H   0  0  0  0  0  0  0  0  0  0  0  0
   -1.8586    0.4644    7.6588 O   0  0  0  0  0  0  0  0  0  0  0  0
   -0.8214    1.1782    7.6048 C   0  0  0  0  0  0  0  0  0  0  0  0
   -0.8819    2.6819    7.8359 C   0  0  0  0  0  0  0  0  0  0  0  0
   -1.8906    3.5413    7.0860 C   0  0  0  0  0  0  0  0  0  0  0  0
   -3.3389    3.1844    7.3956 C   0  0  0  0  0  0  0  0  0  0  0  0
   -3.8673    3.8459    8.6618 C   0  0  0  0  0  0  0  0  0  0  0  0
   -4.1469    5.3366    8.5210 C   0  0  0  0  0  0  0  0  0  0  0  0
   -5.3082    5.6421    7.5864 C   0  0  0  0  0  0  0  0  0  0  0  0
    0.4789    0.7343    8.2404 C   0  0  0  0  0  0  0  0  0  0  0  0
    0.5811    0.3832    9.5396 C   0  0  0  0  0  0  0  0  0  0  0  0
   -0.5972    0.2620   10.4820 C   0  0  0  0  0  0  0  0  0  0  0  0
    1.9379    0.1139   10.1331 C   0  0  0  0  0  3  0  0  0  0  0  0
    3.1767    0.3332    9.5842 C   0  0  0  0  0  3  0  0  0  0  0  0
    4.2290   -0.0570   10.4262 C   0  0  0  0  0  3  0  0  0  0  0  0
    3.7977   -0.5627   11.6115 C   0  0  0  0  0  3  0  0  0  0  0  0
    2.0799   -0.5655   11.7134 S   0  0  0  0  0  0  0  0  0  0  0  0
   -1.1017    2.7474    8.8879 H   0  0  0  0  0  0  0  0  0  0  0  0
    0.1035    3.0926    7.6982 H   0  0  0  0  0  0  0  0  0  0  0  0
   -1.7081    4.5684    7.3530 H   0  0  0  0  0  0  0  0  0  0  0  0
   -1.7001    3.4641    6.0294 H   0  0  0  0  0  0  0  0  0  0  0  0
   -3.9662    3.4675    6.5676 H   0  0  0  0  0  0  0  0  0  0  0  0
   -3.4100    2.1173    7.5199 H   0  0  0  0  0  0  0  0  0  0  0  0
   -4.7812    3.3546    8.9501 H   0  0  0  0  0  0  0  0  0  0  0  0
   -3.1568    3.6984    9.4572 H   0  0  0  0  0  0  0  0  0  0  0  0
   -4.3778    5.7307    9.4963 H   0  0  0  0  0  0  0  0  0  0  0  0
   -3.2669    5.8453    8.1664 H   0  0  0  0  0  0  0  0  0  0  0  0
   -6.1905    5.1134    7.9000 H   0  0  0  0  0  0  0  0  0  0  0  0
   -5.5219    6.6961    7.5937 H   0  0  0  0  0  0  0  0  0  0  0  0
   -5.0787    5.3557    6.5756 H   0  0  0  0  0  0  0  0  0  0  0  0
    1.3639    0.8402    7.6462 H   0  0  0  0  0  0  0  0  0  0  0  0
   -0.5211   -0.6440   11.0556 H   0  0  0  0  0  0  0  0  0  0  0  0
   -0.5991    1.0912   11.1668 H   0  0  0  0  0  0  0  0  0  0  0  0
   -1.5131    0.2547    9.9195 H   0  0  0  0  0  0  0  0  0  0  0  0
    3.3280    0.7686    8.6164 H   0  0  0  0  0  0  0  0  0  0  0  0
    5.2650    0.0377   10.1663 H   0  0  0  0  0  0  0  0  0  0  0  0
    4.3743   -0.9301   12.4355 H   0  0  0  0  0  0  0  0  0  0  0  0
  1  2  1  0  0  0  0
  1 39  1  0  0  0  0
  1 41  1  0  0  0  0
  2  3  1  0  0  0  0
  2 42  1  0  0  0  0
  3  4  1  0  0  0  0
  3 43  1  0  0  0  0
  4  5  1  0  0  0  0
  4 38  1  0  0  0  0
  5  6  1  0  0  0  0
  5 12  1  0  0  0  0
  5 40  1  0  0  0  0
  6  7  1  0  0  0  0
  6 11  1  0  0  0  0
  7  8  1  0  0  0  0
  7 44  1  0  0  0  0
  8  9  1  0  0  0  0
  8 45  1  0  0  0  0
  9 10  1  0  0  0  0
  9 46  1  0  0  0  0
 10 11  1  0  0  0  0
 10 47  1  0  0  0  0
 11 48  1  0  0  0  0
 12 13  1  0  0  0  0
 12 17  1  0  0  0  0
 13 14  1  0  0  0  0
 13 49  1  0  0  0  0
 14 15  1  0  0  0  0
 14 50  1  0  0  0  0
 15 16  1  0  0  0  0
 15 51  1  0  0  0  0
 16 52  1  0  0  0  0
 17 16  1  0  0  0  0
 17 18  1  0  0  0  0
 19 18  1  0  0  0  0
 19 20  1  0  0  0  0
 19 24  1  0  0  0  0
 20 21  1  0  0  0  0
 20 53  1  0  0  0  0
 21 22  1  0  0  0  0
 21 54  1  0  0  0  0
 22 23  1  0  0  0  0
 22 55  1  0  0  0  0
 23 56  1  0  0  0  0
 24 23  1  0  0  0  0
 24 25  1  0  0  0  0
 25 26  1  0  0  0  0
 25 32  1  0  0  0  0
 25 40  1  0  0  0  0
 26 27  1  0  0  0  0
 26 31  1  0  0  0  0
 27 28  1  0  0  0  0
 27 57  1  0  0  0  0
 28 29  1  0  0  0  0
 28 58  1  0  0  0  0
 29 30  1  0  0  0  0
 29 59  1  0  0  0  0
 30 31  1  0  0  0  0
 30 60  1  0  0  0  0
 31 61  1  0  0  0  0
 32 33  1  0  0  0  0
 32 37  1  0  0  0  0
 33 34  1  0  0  0  0
 33 62  1  0  0  0  0
 34 35  1  0  0  0  0
 34 63  1  0  0  0  0
 35 36  1  0  0  0  0
 35 64  1  0  0  0  0
 36 37  1  0  0  0  0
 36 65  1  0  0  0  0
 37 66  1  0  0  0  0
 38 39  1  0  0  0  0
 38 67  1  0  0  0  0
 39 68  1  0  0  0  0
 40 87  1  0  0  0  0
 69 40  1  0  0  0  0
 70 40  1  0  0  0  0
 71 72  1  0  0  0  0
 71 76  1  0  0  0  0
 71 93  1  0  0  0  0
 72 94  1  0  0  0  0
 73 72  1  0  0  0  0
 73 74  1  0  0  0  0
 73 88  1  0  0  0  0
 74 75  1  0  0  0  0
 74 77  1  0  0  0  0
 75 76  1  0  0  0  0
 75 95  1  0  0  0  0
 76 96  1  0  0  0  0
 77 78  1  0  0  0  0
 77 89  1  0  0  0  0
 78 79  1  0  0  0  0
 78 82  1  0  0  0  0
 78 90  1  0  0  0  0
 79 80  1  0  0  0  0
 79 92  1  0  0  0  0
 79 40  1  0  0  0  0
 80 81  1  0  0  0  0
 80 97  1  0  0  0  0
 80 98  1  0  0  0  0
 81 82  1  0  0  0  0
 81 86  1  0  0  0  0
 82 83  1  0  0  0  0
 83 84  1  0  0  0  0
 83 99  1  0  0  0  0
 84 85  1  0  0  0  0
 84100  1  0  0  0  0
 85 86  1  0  0  0  0
 85101  1  0  0  0  0
 86102  1  0  0  0  0
 87 77  1  0  0  0  0
 87 88  1  0  0  0  0
 87 91  1  0  0  0  0
 88103  1  0  0  0  0
 88104  1  0  0  0  0
105106  2  0  0  0  0
105 92  1  0  0  0  0
106107  1  0  0  0  0
106113  1  0  0  0  0
106 69  1  0  0  0  0
107108  1  0  0  0  0
107121  1  0  0  0  0
107122  1  0  0  0  0
108109  1  0  0  0  0
108123  1  0  0  0  0
108124  1  0  0  0  0
109110  1  0  0  0  0
109125  1  0  0  0  0
109126  1  0  0  0  0
110111  1  0  0  0  0
110127  1  0  0  0  0
110128  1  0  0  0  0
111112  1  0  0  0  0
111129  1  0  0  0  0
111130  1  0  0  0  0
112131  1  0  0  0  0
112132  1  0  0  0  0
112133  1  0  0  0  0
113114  2  0  0  0  0
113134  1  0  0  0  0
114115  1  0  0  0  0
115135  1  0  0  0  0
115136  1  0  0  0  0
115137  1  0  0  0  0
116114  1  0  0  0  0
116117  1  0  0  0  0
116120  1  0  0  0  0
117118  1  0  0  0  0
117138  1  0  0  0  0
118119  1  0  0  0  0
118139  1  0  0  0  0
119120  1  0  0  0  0
119140  1  0  0  0  0
M  END
