 energy: -190.753280596082 gnorm: 0.000950631238 xtb: 6.7.1 (edcfbbe)
          07072523013D

129142  0     0  0            999 V2000
    5.2477    0.1114    5.5888 C   0  0  0  0  0  3  0  0  0  0  0  0
    3.9596   -0.2931    5.9043 C   0  0  0  0  0  3  0  0  0  0  0  0
    2.8961    0.1100    5.1151 C   0  0  0  0  0  3  0  0  0  0  0  0
    3.1153    0.9245    4.0089 C   0  0  0  0  0  3  0  0  0  0  0  0
    1.6380    1.4518    3.0356 P   0  0  0  0  0  4  0  0  0  0  0  0
    1.7973    3.1845    3.6748 C   0  0  0  0  0  3  0  0  0  0  0  0
    2.6528    4.1591    3.1656 C   0  0  0  0  0  3  0  0  0  0  0  0
    2.7724    5.3806    3.8073 C   0  0  0  0  0  3  0  0  0  0  0  0
    2.0638    5.6408    4.9706 C   0  0  0  0  0  3  0  0  0  0  0  0
    1.2438    4.6619    5.5086 C   0  0  0  0  0  3  0  0  0  0  0  0
    1.1207    3.4418    4.8628 C   0  0  0  0  0  3  0  0  0  0  0  0
    2.3080    1.6024    1.3345 C   0  0  0  0  0  3  0  0  0  0  0  0
    2.1672    2.6136    0.3992 C   0  0  0  0  0  3  0  0  0  0  0  0
    2.5750    2.3985   -0.9117 C   0  0  0  0  0  3  0  0  0  0  0  0
    3.0666    1.1634   -1.3031 C   0  0  0  0  0  3  0  0  0  0  0  0
    3.1529    0.1111   -0.3994 C   0  0  0  0  0  3  0  0  0  0  0  0
    2.7748    0.3494    0.9114 C   0  0  0  0  0  3  0  0  0  0  0  0
    2.6724   -0.5312    1.9564 O   0  0  0  0  0  0  0  0  0  0  0  0
    3.0268   -1.8502    1.9999 C   0  0  0  0  0  3  0  0  0  0  0  0
    4.1792   -2.3832    1.4301 C   0  0  0  0  0  3  0  0  0  0  0  0
    4.4658   -3.7236    1.6242 C   0  0  0  0  0  3  0  0  0  0  0  0
    3.6209   -4.5153    2.3861 C   0  0  0  0  0  3  0  0  0  0  0  0
    2.4871   -3.9706    2.9675 C   0  0  0  0  0  3  0  0  0  0  0  0
    2.1772   -2.6252    2.7970 C   0  0  0  0  0  3  0  0  0  0  0  0
    0.5839   -1.9065    3.4356 P   0  0  0  0  0  4  0  0  0  0  0  0
   -0.3199   -3.2549    2.5513 C   0  0  0  0  0  3  0  0  0  0  0  0
   -0.8709   -4.3920    3.1324 C   0  0  0  0  0  3  0  0  0  0  0  0
   -1.4663   -5.3635    2.3416 C   0  0  0  0  0  3  0  0  0  0  0  0
   -1.5091   -5.2213    0.9639 C   0  0  0  0  0  3  0  0  0  0  0  0
   -0.9461   -4.0994    0.3732 C   0  0  0  0  0  3  0  0  0  0  0  0
   -0.3545   -3.1277    1.1623 C   0  0  0  0  0  3  0  0  0  0  0  0
    0.6346   -2.6188    5.1385 C   0  0  0  0  0  3  0  0  0  0  0  0
    1.8054   -3.0098    5.7808 C   0  0  0  0  0  3  0  0  0  0  0  0
    1.7523   -3.5865    7.0396 C   0  0  0  0  0  3  0  0  0  0  0  0
    0.5331   -3.7956    7.6639 C   0  0  0  0  0  3  0  0  0  0  0  0
   -0.6335   -3.3660    7.0496 C   0  0  0  0  0  3  0  0  0  0  0  0
   -0.5796   -2.7533    5.8095 C   0  0  0  0  0  3  0  0  0  0  0  0
    4.4065    1.3346    3.6982 C   0  0  0  0  0  3  0  0  0  0  0  0
    5.4692    0.9211    4.4859 C   0  0  0  0  0  3  0  0  0  0  0  0
   -0.3362    0.2029    3.0529 Ru  0  0  0  0  0  0  0  0  0  0  0  0
    6.0822   -0.2068    6.2012 H   0  0  0  0  0  0  0  0  0  0  0  0
    3.7853   -0.9299    6.7629 H   0  0  0  0  0  0  0  0  0  0  0  0
    1.8828   -0.2065    5.3311 H   0  0  0  0  0  0  0  0  0  0  0  0
    3.2391    3.9687    2.2751 H   0  0  0  0  0  0  0  0  0  0  0  0
    3.4337    6.1359    3.4000 H   0  0  0  0  0  0  0  0  0  0  0  0
    2.1636    6.5997    5.4638 H   0  0  0  0  0  0  0  0  0  0  0  0
    0.7062    4.8482    6.4302 H   0  0  0  0  0  0  0  0  0  0  0  0
    0.5007    2.6517    5.2650 H   0  0  0  0  0  0  0  0  0  0  0  0
    1.7386    3.5684    0.6769 H   0  0  0  0  0  0  0  0  0  0  0  0
    2.4879    3.1969   -1.6378 H   0  0  0  0  0  0  0  0  0  0  0  0
    3.3622    1.0031   -2.3323 H   0  0  0  0  0  0  0  0  0  0  0  0
    3.4652   -0.8703   -0.7265 H   0  0  0  0  0  0  0  0  0  0  0  0
    4.8489   -1.7514    0.8641 H   0  0  0  0  0  0  0  0  0  0  0  0
    5.3572   -4.1496    1.1812 H   0  0  0  0  0  0  0  0  0  0  0  0
    3.8460   -5.5642    2.5298 H   0  0  0  0  0  0  0  0  0  0  0  0
    1.8338   -4.5987    3.5589 H   0  0  0  0  0  0  0  0  0  0  0  0
   -0.8426   -4.5276    4.2059 H   0  0  0  0  0  0  0  0  0  0  0  0
   -1.8950   -6.2421    2.8078 H   0  0  0  0  0  0  0  0  0  0  0  0
   -1.9746   -5.9839    0.3521 H   0  0  0  0  0  0  0  0  0  0  0  0
   -0.9680   -3.9837   -0.7035 H   0  0  0  0  0  0  0  0  0  0  0  0
    0.0750   -2.2402    0.7136 H   0  0  0  0  0  0  0  0  0  0  0  0
    2.7613   -2.8679    5.2944 H   0  0  0  0  0  0  0  0  0  0  0  0
    2.6692   -3.8881    7.5310 H   0  0  0  0  0  0  0  0  0  0  0  0
    0.4941   -4.2713    8.6358 H   0  0  0  0  0  0  0  0  0  0  0  0
   -1.5878   -3.5081    7.5413 H   0  0  0  0  0  0  0  0  0  0  0  0
   -1.4815   -2.3612    5.3557 H   0  0  0  0  0  0  0  0  0  0  0  0
    4.5831    1.9633    2.8350 H   0  0  0  0  0  0  0  0  0  0  0  0
    6.4762    1.2334    4.2374 H   0  0  0  0  0  0  0  0  0  0  0  0
   -0.6956    0.6417    4.7089 H   0  0  0  0  0  0  0  0  0  0  0  0
   -0.1921   -0.0844    1.4885 H   0  0  0  0  0  0  0  0  0  0  0  0
   -4.1906    5.6670    1.5766 C   0  0  0  0  0  3  0  0  0  0  0  0
   -2.8561    5.3150    1.7337 C   0  0  0  0  0  3  0  0  0  0  0  0
   -2.5539    4.0166    2.0992 C   0  0  0  0  0  3  0  0  0  0  0  0
   -3.5539    3.0623    2.2865 C   0  0  0  0  0  3  0  0  0  0  0  0
   -4.8824    3.4441    2.2226 C   0  0  0  0  0  3  0  0  0  0  0  0
   -5.1911    4.7454    1.8440 C   0  0  0  0  0  3  0  0  0  0  0  0
   -2.9123    1.7706    2.7305 C   0  0  0  0  0  0  0  0  0  0  0  0
   -3.2271    0.3813    2.1603 C   0  0  0  0  0  0  0  0  0  0  0  0
   -2.4022   -0.5504    2.9817 N   0  0  0  0  0  4  0  0  0  0  0  0
   -3.0220   -1.8755    2.7922 C   0  0  0  0  0  0  0  0  0  0  0  0
   -4.4762   -1.5636    2.5966 C   0  0  0  0  0  3  0  0  0  0  0  0
   -4.6058   -0.2370    2.1855 C   0  0  0  0  0  3  0  0  0  0  0  0
   -5.8324    0.2272    1.7471 C   0  0  0  0  0  3  0  0  0  0  0  0
   -6.9399   -0.6075    1.8494 C   0  0  0  0  0  3  0  0  0  0  0  0
   -6.8184   -1.8989    2.3380 C   0  0  0  0  0  3  0  0  0  0  0  0
   -5.5711   -2.4009    2.6881 C   0  0  0  0  0  3  0  0  0  0  0  0
   -1.4713    1.9708    2.4127 N   0  0  0  0  0  4  0  0  0  0  0  0
   -1.2212    3.4261    2.4499 C   0  0  0  0  0  0  0  0  0  0  0  0
   -3.0454    1.7004    3.8197 H   0  0  0  0  0  0  0  0  0  0  0  0
   -2.8704    0.3301    1.1197 H   0  0  0  0  0  0  0  0  0  0  0  0
   -1.3702    1.7212    1.4266 H   0  0  0  0  0  0  0  0  0  0  0  0
   -2.6358   -0.3294    3.9597 H   0  0  0  0  0  0  0  0  0  0  0  0
   -4.4506    6.6746    1.2779 H   0  0  0  0  0  0  0  0  0  0  0  0
   -2.0678    6.0423    1.5886 H   0  0  0  0  0  0  0  0  0  0  0  0
   -5.6740    2.7607    2.4943 H   0  0  0  0  0  0  0  0  0  0  0  0
   -6.2292    5.0445    1.7721 H   0  0  0  0  0  0  0  0  0  0  0  0
   -2.6331   -2.3432    1.8821 H   0  0  0  0  0  0  0  0  0  0  0  0
   -2.8221   -2.5350    3.6389 H   0  0  0  0  0  0  0  0  0  0  0  0
   -5.9388    1.2057    1.3020 H   0  0  0  0  0  0  0  0  0  0  0  0
   -7.9085   -0.2435    1.5310 H   0  0  0  0  0  0  0  0  0  0  0  0
   -7.6951   -2.5293    2.4173 H   0  0  0  0  0  0  0  0  0  0  0  0
   -5.4539   -3.4260    3.0153 H   0  0  0  0  0  0  0  0  0  0  0  0
   -0.9282    3.7388    3.4566 H   0  0  0  0  0  0  0  0  0  0  0  0
   -0.4125    3.6954    1.7653 H   0  0  0  0  0  0  0  0  0  0  0  0
   -1.9245    2.3374    6.1721 C   0  0  0  0  0  0  0  0  0  0  0  0
   -1.7200    0.8329    6.0814 C   0  0  0  0  0  0  0  0  0  0  0  0
   -0.6439    0.3879    7.0451 C   0  0  0  0  0  0  0  0  0  0  0  0
   -0.8926   -0.5330    7.9967 C   0  0  0  0  0  0  0  0  0  0  0  0
    0.0900   -0.9697    9.0510 C   0  0  0  0  0  3  0  0  0  0  0  0
    1.4442   -0.6923    8.9330 C   0  0  0  0  0  3  0  0  0  0  0  0
    2.3401   -1.1205    9.9267 C   0  0  0  0  0  3  0  0  0  0  0  0
    1.8716   -1.7968   10.9905 C   0  0  0  0  0  3  0  0  0  0  0  0
    2.6708   -2.2762   12.0512 O   0  0  0  0  0  0  0  0  0  0  0  0
    4.0592   -1.9970   12.0000 C   0  0  0  0  0  0  0  0  0  0  0  0
    0.5274   -2.0739   11.1077 C   0  0  0  0  0  3  0  0  0  0  0  0
   -0.3455   -1.6558   10.1296 C   0  0  0  0  0  3  0  0  0  0  0  0
   -2.7120    0.0995    5.8251 O   0  0  0  0  0  0  0  0  0  0  0  0
   -2.8225    2.4794    6.7466 H   0  0  0  0  0  0  0  0  0  0  0  0
   -2.0628    2.8216    5.2227 H   0  0  0  0  0  0  0  0  0  0  0  0
   -1.1112    2.8109    6.6913 H   0  0  0  0  0  0  0  0  0  0  0  0
    0.2943    0.9011    6.9816 H   0  0  0  0  0  0  0  0  0  0  0  0
   -1.8677   -0.9750    8.0472 H   0  0  0  0  0  0  0  0  0  0  0  0
    1.8262   -0.1620    8.0836 H   0  0  0  0  0  0  0  0  0  0  0  0
    3.3798   -0.8903    9.8030 H   0  0  0  0  0  0  0  0  0  0  0  0
    4.5173   -2.4473   11.1367 H   0  0  0  0  0  0  0  0  0  0  0  0
    4.2449   -0.9371   12.0021 H   0  0  0  0  0  0  0  0  0  0  0  0
    4.4678   -2.4352   12.8929 H   0  0  0  0  0  0  0  0  0  0  0  0
    0.1843   -2.6153   11.9673 H   0  0  0  0  0  0  0  0  0  0  0  0
   -1.3889   -1.8809   10.2387 H   0  0  0  0  0  0  0  0  0  0  0  0
  1  2  1  0  0  0  0
  1 39  1  0  0  0  0
  1 41  1  0  0  0  0
  2  3  1  0  0  0  0
  2 42  1  0  0  0  0
  3  4  1  0  0  0  0
  3 43  1  0  0  0  0
  4  5  1  0  0  0  0
  4 38  1  0  0  0  0
  5  6  1  0  0  0  0
  5 12  1  0  0  0  0
  5 40  1  0  0  0  0
  6  7  1  0  0  0  0
  6 11  1  0  0  0  0
  7  8  1  0  0  0  0
  7 44  1  0  0  0  0
  8  9  1  0  0  0  0
  8 45  1  0  0  0  0
  9 10  1  0  0  0  0
  9 46  1  0  0  0  0
 10 11  1  0  0  0  0
 10 47  1  0  0  0  0
 11 48  1  0  0  0  0
 12 13  1  0  0  0  0
 12 17  1  0  0  0  0
 13 14  1  0  0  0  0
 13 49  1  0  0  0  0
 14 15  1  0  0  0  0
 14 50  1  0  0  0  0
 15 16  1  0  0  0  0
 15 51  1  0  0  0  0
 16 52  1  0  0  0  0
 17 16  1  0  0  0  0
 17 18  1  0  0  0  0
 19 18  1  0  0  0  0
 19 20  1  0  0  0  0
 19 24  1  0  0  0  0
 20 21  1  0  0  0  0
 20 53  1  0  0  0  0
 21 22  1  0  0  0  0
 21 54  1  0  0  0  0
 22 23  1  0  0  0  0
 22 55  1  0  0  0  0
 23 56  1  0  0  0  0
 24 23  1  0  0  0  0
 24 25  1  0  0  0  0
 25 26  1  0  0  0  0
 25 32  1  0  0  0  0
 25 40  1  0  0  0  0
 26 27  1  0  0  0  0
 26 31  1  0  0  0  0
 27 28  1  0  0  0  0
 27 57  1  0  0  0  0
 28 29  1  0  0  0  0
 28 58  1  0  0  0  0
 29 30  1  0  0  0  0
 29 59  1  0  0  0  0
 30 31  1  0  0  0  0
 30 60  1  0  0  0  0
 31 61  1  0  0  0  0
 32 33  1  0  0  0  0
 32 37  1  0  0  0  0
 33 34  1  0  0  0  0
 33 62  1  0  0  0  0
 34 35  1  0  0  0  0
 34 63  1  0  0  0  0
 35 36  1  0  0  0  0
 35 64  1  0  0  0  0
 36 37  1  0  0  0  0
 36 65  1  0  0  0  0
 37 66  1  0  0  0  0
 38 39  1  0  0  0  0
 38 67  1  0  0  0  0
 39 68  1  0  0  0  0
 40 87  1  0  0  0  0
 69 40  1  0  0  0  0
 70 40  1  0  0  0  0
 71 72  1  0  0  0  0
 71 76  1  0  0  0  0
 71 93  1  0  0  0  0
 72 94  1  0  0  0  0
 73 72  1  0  0  0  0
 73 74  1  0  0  0  0
 73 88  1  0  0  0  0
 74 75  1  0  0  0  0
 74 77  1  0  0  0  0
 75 76  1  0  0  0  0
 75 95  1  0  0  0  0
 76 96  1  0  0  0  0
 77 78  1  0  0  0  0
 77 89  1  0  0  0  0
 78 79  1  0  0  0  0
 78 82  1  0  0  0  0
 78 90  1  0  0  0  0
 79 80  1  0  0  0  0
 79 92  1  0  0  0  0
 79 40  1  0  0  0  0
 80 81  1  0  0  0  0
 80 97  1  0  0  0  0
 80 98  1  0  0  0  0
 81 82  1  0  0  0  0
 81 86  1  0  0  0  0
 82 83  1  0  0  0  0
 83 84  1  0  0  0  0
 83 99  1  0  0  0  0
 84 85  1  0  0  0  0
 84100  1  0  0  0  0
 85 86  1  0  0  0  0
 85101  1  0  0  0  0
 86102  1  0  0  0  0
 87 77  1  0  0  0  0
 87 88  1  0  0  0  0
 87 91  1  0  0  0  0
 88103  1  0  0  0  0
 88104  1  0  0  0  0
105106  1  0  0  0  0
105118  1  0  0  0  0
105119  1  0  0  0  0
105120  1  0  0  0  0
106107  1  0  0  0  0
106117  2  0  0  0  0
106 69  1  0  0  0  0
107108  2  0  0  0  0
107121  1  0  0  0  0
108122  1  0  0  0  0
109108  1  0  0  0  0
109110  1  0  0  0  0
109116  1  0  0  0  0
110111  1  0  0  0  0
110123  1  0  0  0  0
111112  1  0  0  0  0
111124  1  0  0  0  0
112113  1  0  0  0  0
112115  1  0  0  0  0
113114  1  0  0  0  0
114125  1  0  0  0  0
114126  1  0  0  0  0
114127  1  0  0  0  0
115116  1  0  0  0  0
115128  1  0  0  0  0
116129  1  0  0  0  0
117 92  1  0  0  0  0
M  END
