 energy: -171.710138359983 gnorm: 0.000992477108 xtb: 6.7.1 (edcfbbe)
          07072519263D

121132  0     0  0            999 V2000
   -5.2581   -2.1436    3.1723 C   0  0  0  0  0  3  0  0  0  0  0  0
   -4.8362   -1.5592    1.9894 C   0  0  0  0  0  3  0  0  0  0  0  0
   -3.4840   -1.5003    1.6894 C   0  0  0  0  0  3  0  0  0  0  0  0
   -2.5269   -2.0230    2.5545 C   0  0  0  0  0  3  0  0  0  0  0  0
   -0.7907   -1.6006    2.0490 P   0  0  0  0  0  4  0  0  0  0  0  0
   -0.9950   -2.2512    0.3219 C   0  0  0  0  0  3  0  0  0  0  0  0
   -1.2972   -3.5950    0.1139 C   0  0  0  0  0  3  0  0  0  0  0  0
   -1.4707   -4.0788   -1.1734 C   0  0  0  0  0  3  0  0  0  0  0  0
   -1.3498   -3.2277   -2.2600 C   0  0  0  0  0  3  0  0  0  0  0  0
   -1.0690   -1.8853   -2.0588 C   0  0  0  0  0  3  0  0  0  0  0  0
   -0.8986   -1.3980   -0.7740 C   0  0  0  0  0  3  0  0  0  0  0  0
    0.4577   -2.8913    2.6107 C   0  0  0  0  0  0  0  0  0  0  0  0
    0.0420   -3.9475    3.6495 C   0  0  0  0  0  0  0  0  0  0  0  0
    1.4021   -4.4947    4.1090 C   0  0  0  0  0  0  0  0  0  0  0  0
    2.1946   -3.1959    4.3198 C   0  0  0  0  0  0  0  0  0  0  0  0
    1.7243   -2.2396    3.2064 C   0  0  0  0  0  0  0  0  0  0  0  0
    2.8145   -2.0274    2.1554 C   0  0  0  0  0  0  0  0  0  0  0  0
    4.1082   -1.3775    2.6772 C   0  0  0  0  0  0  0  0  0  0  0  0
    4.8704   -0.9745    1.4053 C   0  0  0  0  0  0  0  0  0  0  0  0
    3.8281   -0.9576    0.2737 C   0  0  0  0  0  0  0  0  0  0  0  0
    2.4619   -1.1074    0.9665 C   0  0  0  0  0  0  0  0  0  0  0  0
    1.6315    0.5364    1.3701 P   0  0  0  0  0  4  0  0  0  0  0  0
    2.9818    1.6558    1.9572 C   0  0  0  0  0  3  0  0  0  0  0  0
    3.9518    2.2422    1.1463 C   0  0  0  0  0  3  0  0  0  0  0  0
    4.8916    3.1004    1.6948 C   0  0  0  0  0  3  0  0  0  0  0  0
    4.8727    3.3953    3.0490 C   0  0  0  0  0  3  0  0  0  0  0  0
    3.8953    2.8397    3.8597 C   0  0  0  0  0  3  0  0  0  0  0  0
    2.9568    1.9816    3.3110 C   0  0  0  0  0  3  0  0  0  0  0  0
    1.5133    1.2287   -0.3357 C   0  0  0  0  0  3  0  0  0  0  0  0
    1.2427    2.5958   -0.4028 C   0  0  0  0  0  3  0  0  0  0  0  0
    1.0411    3.2322   -1.6145 C   0  0  0  0  0  3  0  0  0  0  0  0
    1.1017    2.5051   -2.7941 C   0  0  0  0  0  3  0  0  0  0  0  0
    1.3629    1.1456   -2.7425 C   0  0  0  0  0  3  0  0  0  0  0  0
    1.5632    0.5098   -1.5274 C   0  0  0  0  0  3  0  0  0  0  0  0
   -2.9649   -2.5944    3.7483 C   0  0  0  0  0  3  0  0  0  0  0  0
   -4.3153   -2.6624    4.0461 C   0  0  0  0  0  3  0  0  0  0  0  0
   -0.4091    0.6421    2.4779 Ru  0  0  0  0  0  0  0  0  0  0  0  0
   -6.3126   -2.1942    3.4129 H   0  0  0  0  0  0  0  0  0  0  0  0
   -5.5606   -1.1467    1.2976 H   0  0  0  0  0  0  0  0  0  0  0  0
   -3.1593   -1.0396    0.7654 H   0  0  0  0  0  0  0  0  0  0  0  0
   -1.4081   -4.2591    0.9609 H   0  0  0  0  0  0  0  0  0  0  0  0
   -1.7059   -5.1250   -1.3278 H   0  0  0  0  0  0  0  0  0  0  0  0
   -1.4842   -3.6105   -3.2640 H   0  0  0  0  0  0  0  0  0  0  0  0
   -0.9863   -1.2128   -2.9038 H   0  0  0  0  0  0  0  0  0  0  0  0
   -0.6986   -0.3501   -0.5917 H   0  0  0  0  0  0  0  0  0  0  0  0
    0.7451   -3.4241    1.6977 H   0  0  0  0  0  0  0  0  0  0  0  0
   -0.4243   -3.4698    4.5154 H   0  0  0  0  0  0  0  0  0  0  0  0
   -0.6253   -4.7102    3.2433 H   0  0  0  0  0  0  0  0  0  0  0  0
    1.3290   -5.0952    5.0191 H   0  0  0  0  0  0  0  0  0  0  0  0
    1.8552   -5.1016    3.3206 H   0  0  0  0  0  0  0  0  0  0  0  0
    1.9500   -2.7889    5.3035 H   0  0  0  0  0  0  0  0  0  0  0  0
    3.2737   -3.3721    4.2871 H   0  0  0  0  0  0  0  0  0  0  0  0
    1.4639   -1.2583    3.6166 H   0  0  0  0  0  0  0  0  0  0  0  0
    3.0740   -3.0094    1.7304 H   0  0  0  0  0  0  0  0  0  0  0  0
    3.8467   -0.4952    3.2678 H   0  0  0  0  0  0  0  0  0  0  0  0
    4.7004   -2.0476    3.3042 H   0  0  0  0  0  0  0  0  0  0  0  0
    5.3409    0.0044    1.5278 H   0  0  0  0  0  0  0  0  0  0  0  0
    5.6602   -1.6972    1.1839 H   0  0  0  0  0  0  0  0  0  0  0  0
    3.8946   -0.0513   -0.3303 H   0  0  0  0  0  0  0  0  0  0  0  0
    3.9833   -1.8104   -0.3951 H   0  0  0  0  0  0  0  0  0  0  0  0
    1.7161   -1.5916    0.3287 H   0  0  0  0  0  0  0  0  0  0  0  0
    3.9694    2.0501    0.0813 H   0  0  0  0  0  0  0  0  0  0  0  0
    5.6438    3.5467    1.0559 H   0  0  0  0  0  0  0  0  0  0  0  0
    5.6110    4.0674    3.4681 H   0  0  0  0  0  0  0  0  0  0  0  0
    3.8609    3.0820    4.9149 H   0  0  0  0  0  0  0  0  0  0  0  0
    2.1726    1.5496    3.9187 H   0  0  0  0  0  0  0  0  0  0  0  0
    1.1953    3.1670    0.5175 H   0  0  0  0  0  0  0  0  0  0  0  0
    0.8345    4.2953   -1.6405 H   0  0  0  0  0  0  0  0  0  0  0  0
    0.9430    2.9954   -3.7465 H   0  0  0  0  0  0  0  0  0  0  0  0
    1.4106    0.5695   -3.6588 H   0  0  0  0  0  0  0  0  0  0  0  0
    1.7554   -0.5546   -1.5258 H   0  0  0  0  0  0  0  0  0  0  0  0
   -2.2595   -3.0035    4.4583 H   0  0  0  0  0  0  0  0  0  0  0  0
   -4.6314   -3.1223    4.9744 H   0  0  0  0  0  0  0  0  0  0  0  0
    0.0465    0.3532    4.1422 H   0  0  0  0  0  0  0  0  0  0  0  0
   -1.0563    1.0539    1.0798 H   0  0  0  0  0  0  0  0  0  0  0  0
   -0.2856    2.7152    2.9850 N   0  0  0  0  0  4  0  0  0  0  0  0
   -1.6286    3.2990    2.8667 C   0  0  0  0  0  0  0  0  0  0  0  0
   -1.7128    4.7215    3.3643 C   0  0  0  0  0  3  0  0  0  0  0  0
   -2.3409    5.6938    2.5936 C   0  0  0  0  0  3  0  0  0  0  0  0
   -2.4552    6.9942    3.0578 C   0  0  0  0  0  3  0  0  0  0  0  0
   -1.9396    7.3357    4.2979 C   0  0  0  0  0  3  0  0  0  0  0  0
   -1.3132    6.3710    5.0716 C   0  0  0  0  0  3  0  0  0  0  0  0
   -1.2014    5.0696    4.6113 C   0  0  0  0  0  3  0  0  0  0  0  0
   -2.5597    2.3966    3.6967 C   0  0  0  0  0  0  0  0  0  0  0  0
   -2.3554    1.0011    3.2879 N   0  0  0  0  0  4  0  0  0  0  0  0
   -3.9909    2.8563    3.5595 C   0  0  0  0  0  3  0  0  0  0  0  0
   -4.6945    2.6438    2.3780 C   0  0  0  0  0  3  0  0  0  0  0  0
   -5.9943    3.1030    2.2425 C   0  0  0  0  0  3  0  0  0  0  0  0
   -6.6029    3.7869    3.2831 C   0  0  0  0  0  3  0  0  0  0  0  0
   -5.9054    4.0116    4.4592 C   0  0  0  0  0  3  0  0  0  0  0  0
   -4.6074    3.5483    4.5963 C   0  0  0  0  0  3  0  0  0  0  0  0
    0.3812    3.2894    2.4775 H   0  0  0  0  0  0  0  0  0  0  0  0
   -0.0213    2.7540    3.9773 H   0  0  0  0  0  0  0  0  0  0  0  0
   -1.9238    3.2569    1.8102 H   0  0  0  0  0  0  0  0  0  0  0  0
   -2.7478    5.4274    1.6256 H   0  0  0  0  0  0  0  0  0  0  0  0
   -2.9484    7.7419    2.4495 H   0  0  0  0  0  0  0  0  0  0  0  0
   -2.0281    8.3515    4.6620 H   0  0  0  0  0  0  0  0  0  0  0  0
   -0.9124    6.6319    6.0430 H   0  0  0  0  0  0  0  0  0  0  0  0
   -0.7248    4.3239    5.2358 H   0  0  0  0  0  0  0  0  0  0  0  0
   -2.2323    2.4958    4.7388 H   0  0  0  0  0  0  0  0  0  0  0  0
   -2.5946    0.3888    4.0623 H   0  0  0  0  0  0  0  0  0  0  0  0
   -2.9881    0.7744    2.5263 H   0  0  0  0  0  0  0  0  0  0  0  0
   -4.2254    2.1293    1.5481 H   0  0  0  0  0  0  0  0  0  0  0  0
   -6.5313    2.9317    1.3179 H   0  0  0  0  0  0  0  0  0  0  0  0
   -7.6176    4.1483    3.1751 H   0  0  0  0  0  0  0  0  0  0  0  0
   -6.3732    4.5509    5.2732 H   0  0  0  0  0  0  0  0  0  0  0  0
   -4.0610    3.7339    5.5131 H   0  0  0  0  0  0  0  0  0  0  0  0
    1.3834    0.3636    6.2315 C   0  0  0  0  0  0  0  0  0  0  0  0
    0.0192    0.8612    5.7863 C   0  0  0  0  0  0  0  0  0  0  0  0
   -1.0914   -0.0771    6.2093 C   0  0  0  0  0  3  0  0  0  0  0  0
   -2.3708    0.2370    6.4806 C   0  0  0  0  0  3  0  0  0  0  0  0
   -3.1290   -0.8751    6.9437 C   0  0  0  0  0  3  0  0  0  0  0  0
   -2.3724   -1.9682    7.0066 C   0  0  0  0  0  3  0  0  0  0  0  0
   -2.9036   -3.5643    7.5235 Cl  0  0  0  0  0  0  0  0  0  0  0  0
   -0.7774   -1.7229    6.5272 S   0  0  0  0  0  0  0  0  0  0  0  0
   -0.2170    2.0992    5.7683 O   0  0  0  0  0  0  0  0  0  0  0  0
    1.3586    0.2937    7.3045 H   0  0  0  0  0  0  0  0  0  0  0  0
    2.1471    1.0689    5.9586 H   0  0  0  0  0  0  0  0  0  0  0  0
    1.6157   -0.6028    5.8235 H   0  0  0  0  0  0  0  0  0  0  0  0
   -2.7799    1.2251    6.4049 H   0  0  0  0  0  0  0  0  0  0  0  0
   -4.1664   -0.8244    7.2099 H   0  0  0  0  0  0  0  0  0  0  0  0
  1  2  1  0  0  0  0
  1 36  1  0  0  0  0
  1 38  1  0  0  0  0
  2  3  1  0  0  0  0
  2 39  1  0  0  0  0
  3  4  1  0  0  0  0
  3 40  1  0  0  0  0
  4  5  1  0  0  0  0
  4 35  1  0  0  0  0
  5  6  1  0  0  0  0
  5 12  1  0  0  0  0
  6  7  1  0  0  0  0
  6 11  1  0  0  0  0
  7  8  1  0  0  0  0
  7 41  1  0  0  0  0
  8  9  1  0  0  0  0
  8 42  1  0  0  0  0
  9 10  1  0  0  0  0
  9 43  1  0  0  0  0
 10 11  1  0  0  0  0
 10 44  1  0  0  0  0
 11 45  1  0  0  0  0
 12 13  1  0  0  0  0
 12 16  1  0  0  0  0
 12 46  1  0  0  0  0
 13 14  1  0  0  0  0
 13 47  1  0  0  0  0
 13 48  1  0  0  0  0
 14 15  1  0  0  0  0
 14 49  1  0  0  0  0
 14 50  1  0  0  0  0
 15 16  1  0  0  0  0
 15 51  1  0  0  0  0
 15 52  1  0  0  0  0
 16 17  1  0  0  0  0
 16 53  1  0  0  0  0
 17 18  1  0  0  0  0
 17 21  1  0  0  0  0
 17 54  1  0  0  0  0
 18 19  1  0  0  0  0
 18 55  1  0  0  0  0
 18 56  1  0  0  0  0
 19 20  1  0  0  0  0
 19 57  1  0  0  0  0
 19 58  1  0  0  0  0
 20 21  1  0  0  0  0
 20 59  1  0  0  0  0
 20 60  1  0  0  0  0
 21 22  1  0  0  0  0
 21 61  1  0  0  0  0
 22 23  1  0  0  0  0
 22 29  1  0  0  0  0
 22 37  1  0  0  0  0
 23 24  1  0  0  0  0
 23 28  1  0  0  0  0
 24 25  1  0  0  0  0
 24 62  1  0  0  0  0
 25 26  1  0  0  0  0
 25 63  1  0  0  0  0
 26 27  1  0  0  0  0
 26 64  1  0  0  0  0
 27 28  1  0  0  0  0
 27 65  1  0  0  0  0
 28 66  1  0  0  0  0
 29 30  1  0  0  0  0
 29 34  1  0  0  0  0
 30 31  1  0  0  0  0
 30 67  1  0  0  0  0
 31 32  1  0  0  0  0
 31 68  1  0  0  0  0
 32 33  1  0  0  0  0
 32 69  1  0  0  0  0
 33 34  1  0  0  0  0
 33 70  1  0  0  0  0
 34 71  1  0  0  0  0
 35 36  1  0  0  0  0
 35 72  1  0  0  0  0
 36 73  1  0  0  0  0
 37  5  1  0  0  0  0
 37 76  1  0  0  0  0
 74 37  1  0  0  0  0
 75 37  1  0  0  0  0
 76 77  1  0  0  0  0
 76 92  1  0  0  0  0
 76 93  1  0  0  0  0
 77 78  1  0  0  0  0
 77 84  1  0  0  0  0
 77 94  1  0  0  0  0
 78 79  1  0  0  0  0
 78 83  1  0  0  0  0
 79 80  1  0  0  0  0
 79 95  1  0  0  0  0
 80 81  1  0  0  0  0
 80 96  1  0  0  0  0
 81 82  1  0  0  0  0
 81 97  1  0  0  0  0
 82 83  1  0  0  0  0
 82 98  1  0  0  0  0
 83 99  1  0  0  0  0
 84 85  1  0  0  0  0
 84 86  1  0  0  0  0
 84100  1  0  0  0  0
 85101  1  0  0  0  0
 85102  1  0  0  0  0
 85 37  1  0  0  0  0
 86 87  1  0  0  0  0
 86 91  1  0  0  0  0
 87 88  1  0  0  0  0
 87103  1  0  0  0  0
 88 89  1  0  0  0  0
 88104  1  0  0  0  0
 89 90  1  0  0  0  0
 89105  1  0  0  0  0
 90 91  1  0  0  0  0
 90106  1  0  0  0  0
 91107  1  0  0  0  0
108109  1  0  0  0  0
108117  1  0  0  0  0
108118  1  0  0  0  0
108119  1  0  0  0  0
109116  2  0  0  0  0
109 74  1  0  0  0  0
110109  1  0  0  0  0
110111  1  0  0  0  0
110115  1  0  0  0  0
111112  1  0  0  0  0
111120  1  0  0  0  0
112113  1  0  0  0  0
112121  1  0  0  0  0
113114  1  0  0  0  0
113115  1  0  0  0  0
116 93  1  0  0  0  0
M  END
