 energy: -197.357982267015 gnorm: 0.000988534706 xtb: 6.7.1 (edcfbbe)
          07072520423D

129140  0     0  0            999 V2000
    4.9789   -2.3314    6.3792 C   0  0  0  0  0  0  0  0  0  0  0  0
    4.4264   -1.2186    5.7011 O   0  0  0  0  0  0  0  0  0  0  0  0
    3.7765   -1.4929    4.5459 C   0  0  0  0  0  3  0  0  0  0  0  0
    3.2140   -0.4371    3.8370 C   0  0  0  0  0  3  0  0  0  0  0  0
    2.5417   -0.7184    2.6569 C   0  0  0  0  0  3  0  0  0  0  0  0
    1.6588    0.5648    1.6737 P   0  0  0  0  0  4  0  0  0  0  0  0
    2.5404    2.1224    2.1079 C   0  0  0  0  0  3  0  0  0  0  0  0
    3.3888    2.8219    1.2550 C   0  0  0  0  0  3  0  0  0  0  0  0
    3.9237    4.0377    1.6521 C   0  0  0  0  0  3  0  0  0  0  0  0
    3.6151    4.5721    2.8928 C   0  0  0  0  0  3  0  0  0  0  0  0
    2.7498    3.8946    3.7387 C   0  0  0  0  0  3  0  0  0  0  0  0
    2.2094    2.6841    3.3410 C   0  0  0  0  0  3  0  0  0  0  0  0
    2.4622    0.1701    0.0617 C   0  0  0  0  0  3  0  0  0  0  0  0
    3.8366   -0.0596    0.0190 C   0  0  0  0  0  3  0  0  0  0  0  0
    4.4530   -0.3581   -1.1837 C   0  0  0  0  0  3  0  0  0  0  0  0
    3.7036   -0.4454   -2.3481 C   0  0  0  0  0  3  0  0  0  0  0  0
    2.3372   -0.2169   -2.3107 C   0  0  0  0  0  3  0  0  0  0  0  0
    1.7203    0.0990   -1.1112 C   0  0  0  0  0  3  0  0  0  0  0  0
    2.4312   -2.0460    2.2329 C   0  0  0  0  0  3  0  0  0  0  0  0
    1.7679   -2.4703    0.9758 C   0  0  0  0  0  3  0  0  0  0  0  0
    2.5637   -3.0415   -0.0310 C   0  0  0  0  0  3  0  0  0  0  0  0
    3.8977   -3.1219    0.1765 O   0  0  0  0  0  0  0  0  0  0  0  0
    4.6440   -3.7421   -0.8528 C   0  0  0  0  0  0  0  0  0  0  0  0
    2.0828   -3.4866   -1.1868 N   0  0  0  0  0  2  0  0  0  0  0  0
    0.7692   -3.4121   -1.3844 C   0  0  0  0  0  3  0  0  0  0  0  0
    0.2709   -3.8590   -2.5611 O   0  0  0  0  0  0  0  0  0  0  0  0
    1.2224   -4.3405   -3.4917 C   0  0  0  0  0  0  0  0  0  0  0  0
   -0.1187   -2.9102   -0.4394 C   0  0  0  0  0  3  0  0  0  0  0  0
    0.3873   -2.4275    0.7584 C   0  0  0  0  0  3  0  0  0  0  0  0
   -0.6501   -1.6313    2.0556 P   0  0  0  0  0  4  0  0  0  0  0  0
   -2.3526   -2.2586    1.7436 C   0  0  0  0  0  3  0  0  0  0  0  0
   -3.0799   -2.9719    2.6923 C   0  0  0  0  0  3  0  0  0  0  0  0
   -4.4186   -3.2569    2.4754 C   0  0  0  0  0  3  0  0  0  0  0  0
   -5.0490   -2.8306    1.3172 C   0  0  0  0  0  3  0  0  0  0  0  0
   -4.3382   -2.1013    0.3758 C   0  0  0  0  0  3  0  0  0  0  0  0
   -3.0034   -1.8055    0.5952 C   0  0  0  0  0  3  0  0  0  0  0  0
   -0.1103   -2.7389    3.4257 C   0  0  0  0  0  3  0  0  0  0  0  0
   -0.1679   -4.1242    3.2831 C   0  0  0  0  0  3  0  0  0  0  0  0
    0.2561   -4.9405    4.3175 C   0  0  0  0  0  3  0  0  0  0  0  0
    0.7497   -4.3855    5.4896 C   0  0  0  0  0  3  0  0  0  0  0  0
    0.8259   -3.0089    5.6287 C   0  0  0  0  0  3  0  0  0  0  0  0
    0.3963   -2.1908    4.5969 C   0  0  0  0  0  3  0  0  0  0  0  0
    3.0623   -3.0263    3.0167 C   0  0  0  0  0  3  0  0  0  0  0  0
    2.9764   -4.3154    2.6171 O   0  0  0  0  0  0  0  0  0  0  0  0
    3.6390   -5.2603    3.4346 C   0  0  0  0  0  0  0  0  0  0  0  0
    3.7142   -2.7595    4.1432 N   0  0  0  0  0  2  0  0  0  0  0  0
   -0.6180    0.6705    2.0152 Ru  0  0  0  0  0  0  0  0  0  0  0  0
    5.4358   -1.9329    7.2856 H   0  0  0  0  0  0  0  0  0  0  0  0
    5.7325   -2.8280    5.7595 H   0  0  0  0  0  0  0  0  0  0  0  0
    4.1990   -3.0577    6.6302 H   0  0  0  0  0  0  0  0  0  0  0  0
    3.3255    0.5701    4.2088 H   0  0  0  0  0  0  0  0  0  0  0  0
    3.6305    2.4231    0.2781 H   0  0  0  0  0  0  0  0  0  0  0  0
    4.5855    4.5739    0.9828 H   0  0  0  0  0  0  0  0  0  0  0  0
    4.0387    5.5216    3.1953 H   0  0  0  0  0  0  0  0  0  0  0  0
    2.4898    4.3156    4.7021 H   0  0  0  0  0  0  0  0  0  0  0  0
    1.5049    2.1573    3.9716 H   0  0  0  0  0  0  0  0  0  0  0  0
    4.4180   -0.0107    0.9318 H   0  0  0  0  0  0  0  0  0  0  0  0
    5.5216   -0.5331   -1.2113 H   0  0  0  0  0  0  0  0  0  0  0  0
    4.1878   -0.6910   -3.2853 H   0  0  0  0  0  0  0  0  0  0  0  0
    1.7505   -0.2867   -3.2185 H   0  0  0  0  0  0  0  0  0  0  0  0
    0.6537    0.2765   -1.0593 H   0  0  0  0  0  0  0  0  0  0  0  0
    4.3164   -4.7765   -0.9977 H   0  0  0  0  0  0  0  0  0  0  0  0
    5.6835   -3.7165   -0.5246 H   0  0  0  0  0  0  0  0  0  0  0  0
    4.5259   -3.1983   -1.7958 H   0  0  0  0  0  0  0  0  0  0  0  0
    1.9491   -3.5600   -3.7393 H   0  0  0  0  0  0  0  0  0  0  0  0
    0.6554   -4.6290   -4.3773 H   0  0  0  0  0  0  0  0  0  0  0  0
    1.7602   -5.2034   -3.0861 H   0  0  0  0  0  0  0  0  0  0  0  0
   -1.1753   -2.9256   -0.6582 H   0  0  0  0  0  0  0  0  0  0  0  0
   -2.5989   -3.3043    3.6033 H   0  0  0  0  0  0  0  0  0  0  0  0
   -4.9758   -3.8144    3.2185 H   0  0  0  0  0  0  0  0  0  0  0  0
   -6.0949   -3.0574    1.1523 H   0  0  0  0  0  0  0  0  0  0  0  0
   -4.8298   -1.7563   -0.5256 H   0  0  0  0  0  0  0  0  0  0  0  0
   -2.4462   -1.2082   -0.1160 H   0  0  0  0  0  0  0  0  0  0  0  0
   -0.5426   -4.5527    2.3613 H   0  0  0  0  0  0  0  0  0  0  0  0
    0.2080   -6.0169    4.2077 H   0  0  0  0  0  0  0  0  0  0  0  0
    1.0799   -5.0302    6.2948 H   0  0  0  0  0  0  0  0  0  0  0  0
    1.2225   -2.5729    6.5374 H   0  0  0  0  0  0  0  0  0  0  0  0
    0.4672   -1.1128    4.6663 H   0  0  0  0  0  0  0  0  0  0  0  0
    3.4604   -6.2315    2.9720 H   0  0  0  0  0  0  0  0  0  0  0  0
    3.2333   -5.2406    4.4513 H   0  0  0  0  0  0  0  0  0  0  0  0
    4.7126   -5.0505    3.4771 H   0  0  0  0  0  0  0  0  0  0  0  0
   -0.6151    0.7893    3.7604 H   0  0  0  0  0  0  0  0  0  0  0  0
   -0.8295    0.6791    0.4358 H   0  0  0  0  0  0  0  0  0  0  0  0
   -0.7448    2.7978    2.0272 N   0  0  0  0  0  4  0  0  0  0  0  0
   -2.0162    3.1953    1.4114 C   0  0  0  0  0  0  0  0  0  0  0  0
   -2.3164    4.6700    1.5335 C   0  0  0  0  0  3  0  0  0  0  0  0
   -2.7726    5.3820    0.4295 C   0  0  0  0  0  3  0  0  0  0  0  0
   -3.0914    6.7255    0.5408 C   0  0  0  0  0  3  0  0  0  0  0  0
   -2.9539    7.3723    1.7586 C   0  0  0  0  0  3  0  0  0  0  0  0
   -2.5020    6.6681    2.8635 C   0  0  0  0  0  3  0  0  0  0  0  0
   -2.1879    5.3235    2.7558 C   0  0  0  0  0  3  0  0  0  0  0  0
   -3.1064    2.3824    2.1357 C   0  0  0  0  0  0  0  0  0  0  0  0
   -2.7340    0.9602    2.1202 N   0  0  0  0  0  4  0  0  0  0  0  0
   -4.4645    2.6511    1.5335 C   0  0  0  0  0  3  0  0  0  0  0  0
   -4.8149    2.1231    0.2946 C   0  0  0  0  0  3  0  0  0  0  0  0
   -6.0532    2.3981   -0.2611 C   0  0  0  0  0  3  0  0  0  0  0  0
   -6.9524    3.2110    0.4104 C   0  0  0  0  0  3  0  0  0  0  0  0
   -6.6064    3.7518    1.6382 C   0  0  0  0  0  3  0  0  0  0  0  0
   -5.3694    3.4724    2.1961 C   0  0  0  0  0  3  0  0  0  0  0  0
    0.0234    3.3131    1.6068 H   0  0  0  0  0  0  0  0  0  0  0  0
   -0.7921    3.0573    3.0204 H   0  0  0  0  0  0  0  0  0  0  0  0
   -1.9859    2.9107    0.3523 H   0  0  0  0  0  0  0  0  0  0  0  0
   -2.8845    4.8777   -0.5226 H   0  0  0  0  0  0  0  0  0  0  0  0
   -3.4485    7.2679   -0.3257 H   0  0  0  0  0  0  0  0  0  0  0  0
   -3.2020    8.4223    1.8470 H   0  0  0  0  0  0  0  0  0  0  0  0
   -2.3982    7.1675    3.8186 H   0  0  0  0  0  0  0  0  0  0  0  0
   -1.8584    4.7821    3.6343 H   0  0  0  0  0  0  0  0  0  0  0  0
   -3.0894    2.7212    3.1795 H   0  0  0  0  0  0  0  0  0  0  0  0
   -3.1609    0.5063    2.9233 H   0  0  0  0  0  0  0  0  0  0  0  0
   -3.1213    0.5172    1.2917 H   0  0  0  0  0  0  0  0  0  0  0  0
   -4.1149    1.5026   -0.2517 H   0  0  0  0  0  0  0  0  0  0  0  0
   -6.3150    1.9804   -1.2251 H   0  0  0  0  0  0  0  0  0  0  0  0
   -7.9197    3.4262   -0.0253 H   0  0  0  0  0  0  0  0  0  0  0  0
   -7.3017    4.3937    2.1644 H   0  0  0  0  0  0  0  0  0  0  0  0
   -5.0977    3.9034    3.1519 H   0  0  0  0  0  0  0  0  0  0  0  0
   -0.2134    1.3354    6.1339 C   0  0  0  0  0  0  0  0  0  0  0  0
   -1.3200    1.5721    5.1209 C   0  0  0  0  0  0  0  0  0  0  0  0
   -2.4768    0.6081    5.2750 C   0  0  0  0  0  3  0  0  0  0  0  0
   -3.8070    0.9038    5.1217 C   0  0  0  0  0  3  0  0  0  0  0  0
   -4.6528   -0.1913    5.3611 C   0  0  0  0  0  3  0  0  0  0  0  0
   -3.9653   -1.3124    5.7015 C   0  0  0  0  0  3  0  0  0  0  0  0
   -2.2662   -1.0410    5.7352 S   0  0  0  0  0  0  0  0  0  0  0  0
   -1.5757    2.7473    4.7430 O   0  0  0  0  0  0  0  0  0  0  0  0
   -0.6150    1.5993    7.0961 H   0  0  0  0  0  0  0  0  0  0  0  0
    0.6263    1.9747    5.9310 H   0  0  0  0  0  0  0  0  0  0  0  0
    0.1035    0.3087    6.1604 H   0  0  0  0  0  0  0  0  0  0  0  0
   -4.1649    1.8857    4.8829 H   0  0  0  0  0  0  0  0  0  0  0  0
   -5.7214   -0.1451    5.2854 H   0  0  0  0  0  0  0  0  0  0  0  0
   -4.3455   -2.2839    5.9424 H   0  0  0  0  0  0  0  0  0  0  0  0
  1  2  1  0  0  0  0
  1 48  1  0  0  0  0
  1 49  1  0  0  0  0
  1 50  1  0  0  0  0
  3  2  1  0  0  0  0
  3  4  1  0  0  0  0
  3 46  1  0  0  0  0
  4 51  1  0  0  0  0
  5  4  1  0  0  0  0
  5  6  1  0  0  0  0
  5 19  1  0  0  0  0
  6  7  1  0  0  0  0
  6 13  1  0  0  0  0
  6 47  1  0  0  0  0
  7  8  1  0  0  0  0
  7 12  1  0  0  0  0
  8  9  1  0  0  0  0
  8 52  1  0  0  0  0
  9 10  1  0  0  0  0
  9 53  1  0  0  0  0
 10 11  1  0  0  0  0
 10 54  1  0  0  0  0
 11 12  1  0  0  0  0
 11 55  1  0  0  0  0
 12 56  1  0  0  0  0
 13 14  1  0  0  0  0
 13 18  1  0  0  0  0
 14 15  1  0  0  0  0
 14 57  1  0  0  0  0
 15 16  1  0  0  0  0
 15 58  1  0  0  0  0
 16 17  1  0  0  0  0
 16 59  1  0  0  0  0
 17 18  1  0  0  0  0
 17 60  1  0  0  0  0
 18 61  1  0  0  0  0
 19 20  1  0  0  0  0
 19 43  1  0  0  0  0
 20 21  1  0  0  0  0
 20 29  1  0  0  0  0
 21 22  1  0  0  0  0
 21 24  1  0  0  0  0
 22 23  1  0  0  0  0
 23 62  1  0  0  0  0
 23 63  1  0  0  0  0
 23 64  1  0  0  0  0
 24 25  1  0  0  0  0
 25 26  1  0  0  0  0
 25 28  1  0  0  0  0
 26 27  1  0  0  0  0
 27 65  1  0  0  0  0
 27 66  1  0  0  0  0
 27 67  1  0  0  0  0
 28 29  1  0  0  0  0
 28 68  1  0  0  0  0
 29 30  1  0  0  0  0
 30 31  1  0  0  0  0
 30 37  1  0  0  0  0
 31 32  1  0  0  0  0
 31 36  1  0  0  0  0
 32 33  1  0  0  0  0
 32 69  1  0  0  0  0
 33 34  1  0  0  0  0
 33 70  1  0  0  0  0
 34 35  1  0  0  0  0
 34 71  1  0  0  0  0
 35 36  1  0  0  0  0
 35 72  1  0  0  0  0
 36 73  1  0  0  0  0
 37 38  1  0  0  0  0
 37 42  1  0  0  0  0
 38 39  1  0  0  0  0
 38 74  1  0  0  0  0
 39 40  1  0  0  0  0
 39 75  1  0  0  0  0
 40 41  1  0  0  0  0
 40 76  1  0  0  0  0
 41 42  1  0  0  0  0
 41 77  1  0  0  0  0
 42 78  1  0  0  0  0
 43 44  1  0  0  0  0
 43 46  1  0  0  0  0
 44 45  1  0  0  0  0
 45 79  1  0  0  0  0
 45 80  1  0  0  0  0
 45 81  1  0  0  0  0
 47 30  1  0  0  0  0
 47 84  1  0  0  0  0
 82 47  1  0  0  0  0
 83 47  1  0  0  0  0
 84 85  1  0  0  0  0
 84100  1  0  0  0  0
 84101  1  0  0  0  0
 85 86  1  0  0  0  0
 85 92  1  0  0  0  0
 85102  1  0  0  0  0
 86 87  1  0  0  0  0
 86 91  1  0  0  0  0
 87 88  1  0  0  0  0
 87103  1  0  0  0  0
 88 89  1  0  0  0  0
 88104  1  0  0  0  0
 89 90  1  0  0  0  0
 89105  1  0  0  0  0
 90 91  1  0  0  0  0
 90106  1  0  0  0  0
 91107  1  0  0  0  0
 92 93  1  0  0  0  0
 92 94  1  0  0  0  0
 92108  1  0  0  0  0
 93109  1  0  0  0  0
 93110  1  0  0  0  0
 93 47  1  0  0  0  0
 94 95  1  0  0  0  0
 94 99  1  0  0  0  0
 95 96  1  0  0  0  0
 95111  1  0  0  0  0
 96 97  1  0  0  0  0
 96112  1  0  0  0  0
 97 98  1  0  0  0  0
 97113  1  0  0  0  0
 98 99  1  0  0  0  0
 98114  1  0  0  0  0
 99115  1  0  0  0  0
116117  1  0  0  0  0
116124  1  0  0  0  0
116125  1  0  0  0  0
116126  1  0  0  0  0
117118  1  0  0  0  0
117123  2  0  0  0  0
117 82  1  0  0  0  0
118119  1  0  0  0  0
118122  1  0  0  0  0
119120  1  0  0  0  0
119127  1  0  0  0  0
120121  1  0  0  0  0
120128  1  0  0  0  0
121122  1  0  0  0  0
121129  1  0  0  0  0
123101  1  0  0  0  0
M  END
