 energy: -222.701260106299 gnorm: 0.000801788984 xtb: 6.7.1 (edcfbbe)
          07072520033D

155167  0     0  0            999 V2000
   -5.3241   -2.4531    1.9449 C   0  0  0  0  0  3  0  0  0  0  0  0
   -4.7222   -2.3495    3.1952 C   0  0  0  0  0  3  0  0  0  0  0  0
   -3.3462   -2.1831    3.2661 C   0  0  0  0  0  3  0  0  0  0  0  0
   -2.5630   -2.1311    2.1116 C   0  0  0  0  0  3  0  0  0  0  0  0
   -0.7799   -1.6760    2.2816 P   0  0  0  0  0  4  0  0  0  0  0  0
   -0.2921   -2.8785    3.5942 C   0  0  0  0  0  3  0  0  0  0  0  0
   -1.0027   -4.0518    3.8514 C   0  0  0  0  0  3  0  0  0  0  0  0
   -0.5207   -4.9824    4.7606 C   0  0  0  0  0  3  0  0  0  0  0  0
    0.7278   -4.7745    5.3411 C   0  0  0  0  0  3  0  0  0  0  0  0
    1.4637   -3.6269    5.0806 C   0  0  0  0  0  3  0  0  0  0  0  0
    0.9065   -2.6524    4.2601 C   0  0  0  0  0  3  0  0  0  0  0  0
   -0.1656   -2.4743    0.7157 C   0  0  0  0  0  3  0  0  0  0  0  0
   -0.3671   -1.5879   -0.3434 C   0  0  0  0  0  3  0  0  0  0  0  0
    0.0599   -1.8361   -1.6404 C   0  0  0  0  0  3  0  0  0  0  0  0
    0.4235   -3.1436   -1.9454 C   0  0  0  0  0  3  0  0  0  0  0  0
    0.6123   -4.0458   -0.9133 C   0  0  0  0  0  3  0  0  0  0  0  0
    0.4805   -3.6900    0.4326 C   0  0  0  0  0  3  0  0  0  0  0  0
    1.2933   -4.5092    1.4057 C   0  0  0  0  0  0  0  0  0  0  0  0
    2.7847   -4.0108    1.4397 C   0  0  0  0  0  0  0  0  0  0  0  0
    2.9325   -2.7024    0.7097 C   0  0  0  0  0  3  0  0  0  0  0  0
    3.3546   -2.6394   -0.6165 C   0  0  0  0  0  3  0  0  0  0  0  0
    3.0152   -1.5473   -1.3948 C   0  0  0  0  0  3  0  0  0  0  0  0
    2.2542   -0.4911   -0.8873 C   0  0  0  0  0  3  0  0  0  0  0  0
    1.3830    0.2910   -1.8424 C   0  0  0  0  0  0  0  0  0  0  0  0
    0.3618   -0.6690   -2.5466 C   0  0  0  0  0  0  0  0  0  0  0  0
    2.1233   -0.4095    0.5075 C   0  0  0  0  0  3  0  0  0  0  0  0
    1.3771    0.9398    1.5238 P   0  0  0  0  0  4  0  0  0  0  0  0
    2.8085    1.3470    2.6314 C   0  0  0  0  0  3  0  0  0  0  0  0
    2.6799    2.5774    3.2688 C   0  0  0  0  0  3  0  0  0  0  0  0
    3.6699    3.0615    4.1115 C   0  0  0  0  0  3  0  0  0  0  0  0
    4.7962    2.2771    4.3350 C   0  0  0  0  0  3  0  0  0  0  0  0
    4.9427    1.0408    3.7201 C   0  0  0  0  0  3  0  0  0  0  0  0
    3.9492    0.5863    2.8592 C   0  0  0  0  0  3  0  0  0  0  0  0
    1.6618    2.4092    0.4351 C   0  0  0  0  0  3  0  0  0  0  0  0
    2.9590    2.7602    0.0769 C   0  0  0  0  0  3  0  0  0  0  0  0
    3.2023    3.9031   -0.6748 C   0  0  0  0  0  3  0  0  0  0  0  0
    2.1304    4.6996   -1.0591 C   0  0  0  0  0  3  0  0  0  0  0  0
    0.8229    4.3548   -0.7348 C   0  0  0  0  0  3  0  0  0  0  0  0
    0.6008    3.2002    0.0039 C   0  0  0  0  0  3  0  0  0  0  0  0
    2.4409   -1.5328    1.2721 C   0  0  0  0  0  3  0  0  0  0  0  0
   -3.1892   -2.2412    0.8758 C   0  0  0  0  0  3  0  0  0  0  0  0
   -4.5670   -2.4041    0.7815 C   0  0  0  0  0  3  0  0  0  0  0  0
    4.6091    4.2576   -1.0675 C   0  0  0  0  0  0  0  0  0  0  0  0
   -0.3343    5.2222   -1.1453 C   0  0  0  0  0  0  0  0  0  0  0  0
    3.5442    4.4082    4.7679 C   0  0  0  0  0  0  0  0  0  0  0  0
    6.1530    0.1917    3.9926 C   0  0  0  0  0  0  0  0  0  0  0  0
   -5.2157   -2.5368   -0.5676 C   0  0  0  0  0  0  0  0  0  0  0  0
   -5.5632   -2.3878    4.4405 C   0  0  0  0  0  0  0  0  0  0  0  0
   -1.2962   -6.2311    5.0744 C   0  0  0  0  0  0  0  0  0  0  0  0
    2.8554   -3.4943    5.6322 C   0  0  0  0  0  0  0  0  0  0  0  0
   -0.7236    0.6617    2.4941 Ru  0  0  0  0  0  0  0  0  0  0  0  0
   -6.3988   -2.5751    1.8826 H   0  0  0  0  0  0  0  0  0  0  0  0
   -2.8671   -2.0979    4.2346 H   0  0  0  0  0  0  0  0  0  0  0  0
   -1.9247   -4.2568    3.3218 H   0  0  0  0  0  0  0  0  0  0  0  0
    1.1378   -5.5290    6.0017 H   0  0  0  0  0  0  0  0  0  0  0  0
    1.4156   -1.7077    4.1168 H   0  0  0  0  0  0  0  0  0  0  0  0
   -0.7360   -0.6014   -0.1002 H   0  0  0  0  0  0  0  0  0  0  0  0
    0.6614   -3.4291   -2.9626 H   0  0  0  0  0  0  0  0  0  0  0  0
    1.0016   -5.0298   -1.1475 H   0  0  0  0  0  0  0  0  0  0  0  0
    0.8813   -4.4614    2.4095 H   0  0  0  0  0  0  0  0  0  0  0  0
    1.2850   -5.5557    1.0881 H   0  0  0  0  0  0  0  0  0  0  0  0
    3.0858   -3.8990    2.4851 H   0  0  0  0  0  0  0  0  0  0  0  0
    3.4267   -4.7625    0.9729 H   0  0  0  0  0  0  0  0  0  0  0  0
    3.8492   -3.4890   -1.0707 H   0  0  0  0  0  0  0  0  0  0  0  0
    3.2343   -1.5675   -2.4560 H   0  0  0  0  0  0  0  0  0  0  0  0
    0.8219    1.0323   -1.2740 H   0  0  0  0  0  0  0  0  0  0  0  0
    1.9742    0.8065   -2.6050 H   0  0  0  0  0  0  0  0  0  0  0  0
   -0.5400   -0.0960   -2.7795 H   0  0  0  0  0  0  0  0  0  0  0  0
    0.7823   -1.0418   -3.4846 H   0  0  0  0  0  0  0  0  0  0  0  0
    1.7865    3.1639    3.0934 H   0  0  0  0  0  0  0  0  0  0  0  0
    5.5726    2.6381    4.9991 H   0  0  0  0  0  0  0  0  0  0  0  0
    4.0893   -0.3614    2.3565 H   0  0  0  0  0  0  0  0  0  0  0  0
    3.7880    2.1373    0.3899 H   0  0  0  0  0  0  0  0  0  0  0  0
    2.3157    5.6020   -1.6295 H   0  0  0  0  0  0  0  0  0  0  0  0
   -0.4102    2.8777    0.2161 H   0  0  0  0  0  0  0  0  0  0  0  0
    2.1614   -1.5212    2.3176 H   0  0  0  0  0  0  0  0  0  0  0  0
   -2.6004   -2.2006   -0.0317 H   0  0  0  0  0  0  0  0  0  0  0  0
    4.9242    3.6465   -1.9156 H   0  0  0  0  0  0  0  0  0  0  0  0
    5.2957    4.0647   -0.2431 H   0  0  0  0  0  0  0  0  0  0  0  0
    4.6837    5.3061   -1.3545 H   0  0  0  0  0  0  0  0  0  0  0  0
   -1.1799    4.6109   -1.4601 H   0  0  0  0  0  0  0  0  0  0  0  0
   -0.0538    5.8865   -1.9640 H   0  0  0  0  0  0  0  0  0  0  0  0
   -0.6604    5.8370   -0.3046 H   0  0  0  0  0  0  0  0  0  0  0  0
    2.5300    4.7957    4.6737 H   0  0  0  0  0  0  0  0  0  0  0  0
    4.2277    5.1179    4.3004 H   0  0  0  0  0  0  0  0  0  0  0  0
    3.8001    4.3438    5.8274 H   0  0  0  0  0  0  0  0  0  0  0  0
    7.0368    0.8106    4.1459 H   0  0  0  0  0  0  0  0  0  0  0  0
    6.3392   -0.4964    3.1676 H   0  0  0  0  0  0  0  0  0  0  0  0
    5.9943   -0.3984    4.8975 H   0  0  0  0  0  0  0  0  0  0  0  0
   -5.0403   -3.5373   -0.9683 H   0  0  0  0  0  0  0  0  0  0  0  0
   -4.7908   -1.8192   -1.2695 H   0  0  0  0  0  0  0  0  0  0  0  0
   -6.2920   -2.3783   -0.5004 H   0  0  0  0  0  0  0  0  0  0  0  0
   -6.0183   -1.4106    4.6133 H   0  0  0  0  0  0  0  0  0  0  0  0
   -4.9569   -2.6469    5.3079 H   0  0  0  0  0  0  0  0  0  0  0  0
   -6.3676   -3.1173    4.3391 H   0  0  0  0  0  0  0  0  0  0  0  0
   -1.4070   -6.3489    6.1533 H   0  0  0  0  0  0  0  0  0  0  0  0
   -0.7690   -7.1084    4.6959 H   0  0  0  0  0  0  0  0  0  0  0  0
   -2.2858   -6.1985    4.6194 H   0  0  0  0  0  0  0  0  0  0  0  0
    3.4694   -4.3254    5.2808 H   0  0  0  0  0  0  0  0  0  0  0  0
    2.8461   -3.5280    6.7213 H   0  0  0  0  0  0  0  0  0  0  0  0
    3.3139   -2.5573    5.3141 H   0  0  0  0  0  0  0  0  0  0  0  0
   -0.2504    0.6923    4.1787 H   0  0  0  0  0  0  0  0  0  0  0  0
   -1.3865    0.8094    1.0485 H   0  0  0  0  0  0  0  0  0  0  0  0
   -1.1508    2.7438    2.7456 N   0  0  0  0  0  4  0  0  0  0  0  0
   -2.5547    3.0068    2.4062 C   0  0  0  0  0  0  0  0  0  0  0  0
   -2.9935    4.4210    2.6992 C   0  0  0  0  0  3  0  0  0  0  0  0
   -3.7400    5.1240    1.7596 C   0  0  0  0  0  3  0  0  0  0  0  0
   -4.1821    6.4084    2.0312 C   0  0  0  0  0  3  0  0  0  0  0  0
   -3.8799    7.0025    3.2464 C   0  0  0  0  0  3  0  0  0  0  0  0
   -3.1374    6.3066    4.1874 C   0  0  0  0  0  3  0  0  0  0  0  0
   -2.6973    5.0209    3.9196 C   0  0  0  0  0  3  0  0  0  0  0  0
   -3.4020    2.0097    3.2203 C   0  0  0  0  0  0  0  0  0  0  0  0
   -2.7304    0.7016    3.2215 N   0  0  0  0  0  4  0  0  0  0  0  0
   -4.8027    1.9233    2.6645 C   0  0  0  0  0  3  0  0  0  0  0  0
   -5.0438    1.2411    1.4749 C   0  0  0  0  0  3  0  0  0  0  0  0
   -6.3280    1.1574    0.9633 C   0  0  0  0  0  3  0  0  0  0  0  0
   -7.3824    1.7639    1.6273 C   0  0  0  0  0  3  0  0  0  0  0  0
   -7.1469    2.4603    2.8018 C   0  0  0  0  0  3  0  0  0  0  0  0
   -5.8637    2.5386    3.3185 C   0  0  0  0  0  3  0  0  0  0  0  0
   -0.5581    3.3893    2.2311 H   0  0  0  0  0  0  0  0  0  0  0  0
   -1.0123    2.9536    3.7414 H   0  0  0  0  0  0  0  0  0  0  0  0
   -2.6909    2.7967    1.3387 H   0  0  0  0  0  0  0  0  0  0  0  0
   -3.9806    4.6578    0.8119 H   0  0  0  0  0  0  0  0  0  0  0  0
   -4.7638    6.9456    1.2926 H   0  0  0  0  0  0  0  0  0  0  0  0
   -4.2247    8.0062    3.4603 H   0  0  0  0  0  0  0  0  0  0  0  0
   -2.9019    6.7660    5.1393 H   0  0  0  0  0  0  0  0  0  0  0  0
   -2.1265    4.4874    4.6704 H   0  0  0  0  0  0  0  0  0  0  0  0
   -3.4431    2.3947    4.2477 H   0  0  0  0  0  0  0  0  0  0  0  0
   -2.7674    0.3056    4.1561 H   0  0  0  0  0  0  0  0  0  0  0  0
   -3.2444    0.0698    2.6144 H   0  0  0  0  0  0  0  0  0  0  0  0
   -4.2268    0.7774    0.9365 H   0  0  0  0  0  0  0  0  0  0  0  0
   -6.5030    0.6185    0.0407 H   0  0  0  0  0  0  0  0  0  0  0  0
   -8.3863    1.6983    1.2275 H   0  0  0  0  0  0  0  0  0  0  0  0
   -7.9655    2.9429    3.3204 H   0  0  0  0  0  0  0  0  0  0  0  0
   -5.6823    3.0853    4.2360 H   0  0  0  0  0  0  0  0  0  0  0  0
    1.2107    1.5090    5.9812 C   0  0  0  0  0  0  0  0  0  0  0  0
   -0.2858    1.4280    5.7378 C   0  0  0  0  0  0  0  0  0  0  0  0
   -1.1056    0.2954    6.3353 C   0  0  0  0  0  3  0  0  0  0  0  0
   -0.6775   -0.8827    6.9356 C   0  0  0  0  0  3  0  0  0  0  0  0
    0.7128   -1.1559    7.4822 C   0  0  0  0  0  0  0  0  0  0  0  0
    0.9956   -0.3124    8.4791 F   0  0  0  0  0  0  0  0  0  0  0  0
    0.8158   -2.3737    8.0212 F   0  0  0  0  0  0  0  0  0  0  0  0
    1.7324   -1.0820    6.6266 F   0  0  0  0  0  0  0  0  0  0  0  0
   -1.6322   -1.8568    7.2855 C   0  0  0  0  0  3  0  0  0  0  0  0
   -2.9467   -1.6457    7.1229 C   0  0  0  0  0  3  0  0  0  0  0  0
   -3.3792   -0.4269    6.6612 C   0  0  0  0  0  3  0  0  0  0  0  0
   -2.4393    0.5024    6.2745 C   0  0  0  0  0  3  0  0  0  0  0  0
   -0.8619    2.5422    5.6055 O   0  0  0  0  0  0  0  0  0  0  0  0
    1.7815    0.7693    5.4512 H   0  0  0  0  0  0  0  0  0  0  0  0
    1.3992    1.4423    7.0374 H   0  0  0  0  0  0  0  0  0  0  0  0
    1.5276    2.4810    5.6503 H   0  0  0  0  0  0  0  0  0  0  0  0
   -1.2907   -2.7802    7.7107 H   0  0  0  0  0  0  0  0  0  0  0  0
   -3.6527   -2.4043    7.4005 H   0  0  0  0  0  0  0  0  0  0  0  0
   -4.4250   -0.1967    6.5996 H   0  0  0  0  0  0  0  0  0  0  0  0
   -2.7615    1.4746    5.9541 H   0  0  0  0  0  0  0  0  0  0  0  0
  1  2  1  0  0  0  0
  1 42  1  0  0  0  0
  1 52  1  0  0  0  0
  2  3  1  0  0  0  0
  2 48  1  0  0  0  0
  3 53  1  0  0  0  0
  4  3  1  0  0  0  0
  4 41  1  0  0  0  0
  5  4  1  0  0  0  0
  5  6  1  0  0  0  0
  5 12  1  0  0  0  0
  6  7  1  0  0  0  0
  6 11  1  0  0  0  0
  7  8  1  0  0  0  0
  7 54  1  0  0  0  0
  8  9  1  0  0  0  0
  8 49  1  0  0  0  0
  9 10  1  0  0  0  0
  9 55  1  0  0  0  0
 10 11  1  0  0  0  0
 10 50  1  0  0  0  0
 11 56  1  0  0  0  0
 12 13  1  0  0  0  0
 12 17  1  0  0  0  0
 13 57  1  0  0  0  0
 14 13  1  0  0  0  0
 14 15  1  0  0  0  0
 14 25  1  0  0  0  0
 15 16  1  0  0  0  0
 15 58  1  0  0  0  0
 16 59  1  0  0  0  0
 17 16  1  0  0  0  0
 17 18  1  0  0  0  0
 18 19  1  0  0  0  0
 18 60  1  0  0  0  0
 18 61  1  0  0  0  0
 19 20  1  0  0  0  0
 19 62  1  0  0  0  0
 19 63  1  0  0  0  0
 20 21  1  0  0  0  0
 20 40  1  0  0  0  0
 21 22  1  0  0  0  0
 21 64  1  0  0  0  0
 22 65  1  0  0  0  0
 23 22  1  0  0  0  0
 23 24  1  0  0  0  0
 23 26  1  0  0  0  0
 24 25  1  0  0  0  0
 24 66  1  0  0  0  0
 24 67  1  0  0  0  0
 25 68  1  0  0  0  0
 25 69  1  0  0  0  0
 26 27  1  0  0  0  0
 26 40  1  0  0  0  0
 27 28  1  0  0  0  0
 27 34  1  0  0  0  0
 27 51  1  0  0  0  0
 28 29  1  0  0  0  0
 28 33  1  0  0  0  0
 29 30  1  0  0  0  0
 29 70  1  0  0  0  0
 30 31  1  0  0  0  0
 30 45  1  0  0  0  0
 31 32  1  0  0  0  0
 31 71  1  0  0  0  0
 32 33  1  0  0  0  0
 32 46  1  0  0  0  0
 33 72  1  0  0  0  0
 34 35  1  0  0  0  0
 34 39  1  0  0  0  0
 35 36  1  0  0  0  0
 35 73  1  0  0  0  0
 36 37  1  0  0  0  0
 36 43  1  0  0  0  0
 37 38  1  0  0  0  0
 37 74  1  0  0  0  0
 38 39  1  0  0  0  0
 38 44  1  0  0  0  0
 39 75  1  0  0  0  0
 40 76  1  0  0  0  0
 41 42  1  0  0  0  0
 41 77  1  0  0  0  0
 42 47  1  0  0  0  0
 43 78  1  0  0  0  0
 43 79  1  0  0  0  0
 43 80  1  0  0  0  0
 44 81  1  0  0  0  0
 44 82  1  0  0  0  0
 44 83  1  0  0  0  0
 45 84  1  0  0  0  0
 45 85  1  0  0  0  0
 45 86  1  0  0  0  0
 46 87  1  0  0  0  0
 46 88  1  0  0  0  0
 46 89  1  0  0  0  0
 47 90  1  0  0  0  0
 47 91  1  0  0  0  0
 47 92  1  0  0  0  0
 48 93  1  0  0  0  0
 48 94  1  0  0  0  0
 48 95  1  0  0  0  0
 49 96  1  0  0  0  0
 49 97  1  0  0  0  0
 49 98  1  0  0  0  0
 50 99  1  0  0  0  0
 50100  1  0  0  0  0
 50101  1  0  0  0  0
 51  5  1  0  0  0  0
 51104  1  0  0  0  0
102 51  1  0  0  0  0
103 51  1  0  0  0  0
104105  1  0  0  0  0
104120  1  0  0  0  0
104121  1  0  0  0  0
105106  1  0  0  0  0
105112  1  0  0  0  0
105122  1  0  0  0  0
106107  1  0  0  0  0
106111  1  0  0  0  0
107108  1  0  0  0  0
107123  1  0  0  0  0
108109  1  0  0  0  0
108124  1  0  0  0  0
109110  1  0  0  0  0
109125  1  0  0  0  0
110111  1  0  0  0  0
110126  1  0  0  0  0
111127  1  0  0  0  0
112113  1  0  0  0  0
112114  1  0  0  0  0
112128  1  0  0  0  0
113129  1  0  0  0  0
113130  1  0  0  0  0
113 51  1  0  0  0  0
114115  1  0  0  0  0
114119  1  0  0  0  0
115116  1  0  0  0  0
115131  1  0  0  0  0
116117  1  0  0  0  0
116132  1  0  0  0  0
117118  1  0  0  0  0
117133  1  0  0  0  0
118119  1  0  0  0  0
118134  1  0  0  0  0
119135  1  0  0  0  0
136137  1  0  0  0  0
136149  1  0  0  0  0
136150  1  0  0  0  0
136151  1  0  0  0  0
137148  2  0  0  0  0
137102  1  0  0  0  0
138137  1  0  0  0  0
138139  1  0  0  0  0
138147  1  0  0  0  0
139140  1  0  0  0  0
139144  1  0  0  0  0
140141  1  0  0  0  0
140142  1  0  0  0  0
140143  1  0  0  0  0
144145  1  0  0  0  0
144152  1  0  0  0  0
145146  1  0  0  0  0
145153  1  0  0  0  0
146147  1  0  0  0  0
146154  1  0  0  0  0
147155  1  0  0  0  0
148121  1  0  0  0  0
M  END
