 energy: -256.413921251324 gnorm: 0.002077507438 xtb: 6.7.1 (edcfbbe)
          07072520013D

169182  0     0  0            999 V2000
    3.0145    3.9848    0.2078 C   0  0  0  0  0  3  0  0  0  0  0  0
    3.7590    3.7587    1.3559 C   0  0  0  0  0  3  0  0  0  0  0  0
    3.1967    3.0874    2.4280 C   0  0  0  0  0  3  0  0  0  0  0  0
    1.8806    2.6334    2.3622 C   0  0  0  0  0  3  0  0  0  0  0  0
    1.1574    1.8034    3.8410 P   0  0  0  0  0  4  0  0  0  0  0  0
    1.5711    3.2137    4.9562 C   0  0  0  0  0  3  0  0  0  0  0  0
    2.6691    3.3972    5.7917 C   0  0  0  0  0  3  0  0  0  0  0  0
    2.7844    4.5609    6.5364 C   0  0  0  0  0  3  0  0  0  0  0  0
    1.8274    5.5590    6.4463 C   0  0  0  0  0  3  0  0  0  0  0  0
    0.7536    5.4063    5.5818 C   0  0  0  0  0  3  0  0  0  0  0  0
    0.6333    4.2418    4.8432 C   0  0  0  0  0  3  0  0  0  0  0  0
    2.4660    0.5273    4.1205 C   0  0  0  0  0  3  0  0  0  0  0  0
    2.9137   -0.2796    3.0846 C   0  0  0  0  0  3  0  0  0  0  0  0
    2.4349   -0.0730    1.6940 C   0  0  0  0  0  3  0  0  0  0  0  0
    1.1368   -0.4299    1.3619 C   0  0  0  0  0  3  0  0  0  0  0  0
   -0.0339   -0.8627    2.7242 P   0  0  0  0  0  4  0  0  0  0  0  0
    0.8868   -2.2989    3.4273 C   0  0  0  0  0  3  0  0  0  0  0  0
    0.9050   -2.4963    4.8030 C   0  0  0  0  0  3  0  0  0  0  0  0
    1.5022   -3.6282    5.3331 C   0  0  0  0  0  3  0  0  0  0  0  0
    2.0907   -4.5606    4.4941 C   0  0  0  0  0  3  0  0  0  0  0  0
    2.0691   -4.3714    3.1202 C   0  0  0  0  0  3  0  0  0  0  0  0
    1.4623   -3.2483    2.5842 C   0  0  0  0  0  3  0  0  0  0  0  0
   -1.3693   -1.8281    1.8923 C   0  0  0  0  0  3  0  0  0  0  0  0
   -2.1835   -1.2052    0.9450 C   0  0  0  0  0  3  0  0  0  0  0  0
   -3.2793   -1.8570    0.4054 C   0  0  0  0  0  3  0  0  0  0  0  0
   -3.6046   -3.1346    0.8343 C   0  0  0  0  0  3  0  0  0  0  0  0
   -2.8350   -3.7434    1.8126 C   0  0  0  0  0  3  0  0  0  0  0  0
   -1.7305   -3.0956    2.3427 C   0  0  0  0  0  3  0  0  0  0  0  0
    0.7292   -0.3170    0.0204 C   0  0  0  0  0  3  0  0  0  0  0  0
    1.5684    0.1720   -0.9467 C   0  0  0  0  0  3  0  0  0  0  0  0
    2.8969    0.5608   -0.6385 C   0  0  0  0  0  3  0  0  0  0  0  0
    3.7776    1.0676   -1.6181 C   0  0  0  0  0  3  0  0  0  0  0  0
    5.0631    1.3965   -1.2858 C   0  0  0  0  0  3  0  0  0  0  0  0
    5.5140    1.2385    0.0336 C   0  0  0  0  0  3  0  0  0  0  0  0
    4.6773    0.7651    1.0065 C   0  0  0  0  0  3  0  0  0  0  0  0
    3.3424    0.4048    0.7016 C   0  0  0  0  0  3  0  0  0  0  0  0
    3.8266   -1.3491    3.3344 C   0  0  0  0  0  3  0  0  0  0  0  0
    4.3360   -2.1715    2.3004 C   0  0  0  0  0  3  0  0  0  0  0  0
    5.1885   -3.2044    2.5779 C   0  0  0  0  0  3  0  0  0  0  0  0
    5.5622   -3.4909    3.8997 C   0  0  0  0  0  3  0  0  0  0  0  0
    5.0793   -2.7296    4.9282 C   0  0  0  0  0  3  0  0  0  0  0  0
    4.2135   -1.6456    4.6691 C   0  0  0  0  0  3  0  0  0  0  0  0
    3.6966   -0.8337    5.7114 C   0  0  0  0  0  3  0  0  0  0  0  0
    2.8675    0.2224    5.4328 C   0  0  0  0  0  3  0  0  0  0  0  0
    1.1344    2.8849    1.2169 C   0  0  0  0  0  3  0  0  0  0  0  0
    1.7014    3.5488    0.1414 C   0  0  0  0  0  3  0  0  0  0  0  0
   -0.9600    0.9186    3.8512 Ru  0  0  0  0  0  0  0  0  0  0  0  0
    4.0376   -1.1479    7.4535 P   0  0  0  0  0  0  0  0  0  0  0  0
    0.8777    0.2995   -2.6067 P   0  0  0  0  0  0  0  0  0  0  0  0
    5.6347   -1.2138    7.5900 O   0  0  0  0  0  0  0  0  0  0  0  0
    3.6024   -2.6775    7.7549 O   0  0  0  0  0  0  0  0  0  0  0  0
    3.4262   -0.2067    8.4175 O   0  0  0  0  0  0  0  0  0  0  0  0
    1.0741    1.8367   -3.0691 O   0  0  0  0  0  0  0  0  0  0  0  0
    1.8908   -0.4955   -3.5741 O   0  0  0  0  0  0  0  0  0  0  0  0
   -0.5216   -0.1458   -2.7720 O   0  0  0  0  0  0  0  0  0  0  0  0
    3.4586    4.5028   -0.6329 H   0  0  0  0  0  0  0  0  0  0  0  0
    4.7832    4.1054    1.4148 H   0  0  0  0  0  0  0  0  0  0  0  0
    3.7821    2.9059    3.3216 H   0  0  0  0  0  0  0  0  0  0  0  0
    3.4462    2.6478    5.8679 H   0  0  0  0  0  0  0  0  0  0  0  0
    3.6355    4.6885    7.1937 H   0  0  0  0  0  0  0  0  0  0  0  0
    1.9252    6.4605    7.0380 H   0  0  0  0  0  0  0  0  0  0  0  0
    0.0183    6.1955    5.4834 H   0  0  0  0  0  0  0  0  0  0  0  0
   -0.1731    4.1122    4.1320 H   0  0  0  0  0  0  0  0  0  0  0  0
    0.4401   -1.7578    5.4433 H   0  0  0  0  0  0  0  0  0  0  0  0
    1.4980   -3.7888    6.4048 H   0  0  0  0  0  0  0  0  0  0  0  0
    2.5627   -5.4417    4.9106 H   0  0  0  0  0  0  0  0  0  0  0  0
    2.5214   -5.1053    2.4647 H   0  0  0  0  0  0  0  0  0  0  0  0
    1.4258   -3.1013    1.5112 H   0  0  0  0  0  0  0  0  0  0  0  0
   -1.9635   -0.1905    0.6390 H   0  0  0  0  0  0  0  0  0  0  0  0
   -3.8856   -1.3602   -0.3417 H   0  0  0  0  0  0  0  0  0  0  0  0
   -4.4620   -3.6476    0.4171 H   0  0  0  0  0  0  0  0  0  0  0  0
   -3.0951   -4.7322    2.1701 H   0  0  0  0  0  0  0  0  0  0  0  0
   -1.1497   -3.5844    3.1136 H   0  0  0  0  0  0  0  0  0  0  0  0
   -0.2544   -0.6388   -0.2923 H   0  0  0  0  0  0  0  0  0  0  0  0
    3.4112    1.1830   -2.6285 H   0  0  0  0  0  0  0  0  0  0  0  0
    5.7407    1.7809   -2.0376 H   0  0  0  0  0  0  0  0  0  0  0  0
    6.5343    1.5033    0.2812 H   0  0  0  0  0  0  0  0  0  0  0  0
    5.0291    0.6568    2.0238 H   0  0  0  0  0  0  0  0  0  0  0  0
    4.0461   -1.9728    1.2773 H   0  0  0  0  0  0  0  0  0  0  0  0
    5.5745   -3.8154    1.7719 H   0  0  0  0  0  0  0  0  0  0  0  0
    6.2307   -4.3191    4.0982 H   0  0  0  0  0  0  0  0  0  0  0  0
    5.3505   -2.9376    5.9533 H   0  0  0  0  0  0  0  0  0  0  0  0
    2.5051    0.8214    6.2547 H   0  0  0  0  0  0  0  0  0  0  0  0
    0.1093    2.5390    1.1797 H   0  0  0  0  0  0  0  0  0  0  0  0
    1.1173    3.7269   -0.7532 H   0  0  0  0  0  0  0  0  0  0  0  0
    5.8829   -0.7436    8.3903 H   0  0  0  0  0  0  0  0  0  0  0  0
    2.7534   -2.6624    8.2051 H   0  0  0  0  0  0  0  0  0  0  0  0
    0.2024    2.2202   -3.1936 H   0  0  0  0  0  0  0  0  0  0  0  0
    1.3734   -1.0888   -4.1248 H   0  0  0  0  0  0  0  0  0  0  0  0
   -0.8385    0.3426    5.4959 H   0  0  0  0  0  0  0  0  0  0  0  0
   -1.2770    1.6150    2.4494 H   0  0  0  0  0  0  0  0  0  0  0  0
   -6.3711   -1.8992    9.4338 C   0  0  0  0  0  0  0  0  0  0  0  0
   -6.4059   -2.2620    8.0652 O   0  0  0  0  0  0  0  0  0  0  0  0
   -5.8972   -1.3877    7.1549 C   0  0  0  0  0  3  0  0  0  0  0  0
   -5.8353   -1.8462    5.8368 C   0  0  0  0  0  3  0  0  0  0  0  0
   -5.2995   -1.0487    4.8479 C   0  0  0  0  0  3  0  0  0  0  0  0
   -4.8312    0.2419    5.1170 C   0  0  0  0  0  3  0  0  0  0  0  0
   -4.1330    0.9420    3.9557 C   0  0  0  0  0  0  0  0  0  0  0  0
   -2.9328    0.1030    3.6989 N   0  0  0  0  0  4  0  0  0  0  0  0
   -5.0108    0.9408    2.7074 C   0  0  0  0  0  3  0  0  0  0  0  0
   -6.3815    0.7031    2.7246 C   0  0  0  0  0  3  0  0  0  0  0  0
   -7.1390    0.7348    1.5649 C   0  0  0  0  0  3  0  0  0  0  0  0
   -6.5384    1.0117    0.3396 C   0  0  0  0  0  3  0  0  0  0  0  0
   -7.1818    1.0709   -0.8594 O   0  0  0  0  0  0  0  0  0  0  0  0
   -8.5782    0.8560   -0.8887 C   0  0  0  0  0  0  0  0  0  0  0  0
   -5.1646    1.2603    0.3105 C   0  0  0  0  0  3  0  0  0  0  0  0
   -4.4237    1.2282    1.4745 C   0  0  0  0  0  3  0  0  0  0  0  0
   -3.5994    2.3930    4.1307 C   0  0  0  0  0  0  0  0  0  0  0  0
   -2.2773    2.3262    4.7677 N   0  0  0  0  0  4  0  0  0  0  0  0
   -4.4734    3.4721    4.8241 C   0  0  0  0  0  0  0  0  0  0  0  0
   -4.0246    4.8585    4.3465 C   0  0  0  0  0  0  0  0  0  0  0  0
   -5.9753    3.3238    4.5594 C   0  0  0  0  0  0  0  0  0  0  0  0
   -4.9061    0.6902    6.4295 C   0  0  0  0  0  3  0  0  0  0  0  0
   -5.4331   -0.1059    7.4347 C   0  0  0  0  0  3  0  0  0  0  0  0
   -6.7580   -2.7639    9.9753 H   0  0  0  0  0  0  0  0  0  0  0  0
   -7.0083   -1.0305    9.6332 H   0  0  0  0  0  0  0  0  0  0  0  0
   -5.3478   -1.6897    9.7602 H   0  0  0  0  0  0  0  0  0  0  0  0
   -6.1932   -2.8423    5.6147 H   0  0  0  0  0  0  0  0  0  0  0  0
   -5.2332   -1.4463    3.8418 H   0  0  0  0  0  0  0  0  0  0  0  0
   -2.9184   -0.6708    4.3571 H   0  0  0  0  0  0  0  0  0  0  0  0
   -3.0079   -0.3068    2.7737 H   0  0  0  0  0  0  0  0  0  0  0  0
   -6.8882    0.4892    3.6569 H   0  0  0  0  0  0  0  0  0  0  0  0
   -8.2009    0.5446    1.6343 H   0  0  0  0  0  0  0  0  0  0  0  0
   -9.1106    1.6030   -0.2897 H   0  0  0  0  0  0  0  0  0  0  0  0
   -8.8367   -0.1487   -0.5367 H   0  0  0  0  0  0  0  0  0  0  0  0
   -8.8678    0.9582   -1.9356 H   0  0  0  0  0  0  0  0  0  0  0  0
   -4.6985    1.4831   -0.6394 H   0  0  0  0  0  0  0  0  0  0  0  0
   -3.3642    1.4431    1.4175 H   0  0  0  0  0  0  0  0  0  0  0  0
   -3.4242    2.7555    3.1076 H   0  0  0  0  0  0  0  0  0  0  0  0
   -1.8961    3.2665    4.8146 H   0  0  0  0  0  0  0  0  0  0  0  0
   -2.4105    2.0401    5.7448 H   0  0  0  0  0  0  0  0  0  0  0  0
   -4.3052    3.4264    5.9075 H   0  0  0  0  0  0  0  0  0  0  0  0
   -4.5803    5.6330    4.8752 H   0  0  0  0  0  0  0  0  0  0  0  0
   -4.2140    4.9715    3.2788 H   0  0  0  0  0  0  0  0  0  0  0  0
   -2.9640    5.0305    4.5271 H   0  0  0  0  0  0  0  0  0  0  0  0
   -6.1783    3.3392    3.4883 H   0  0  0  0  0  0  0  0  0  0  0  0
   -6.5089    4.1533    5.0238 H   0  0  0  0  0  0  0  0  0  0  0  0
   -6.3586    2.3955    4.9784 H   0  0  0  0  0  0  0  0  0  0  0  0
   -4.5158    1.6531    6.7192 H   0  0  0  0  0  0  0  0  0  0  0  0
   -5.4444    0.2828    8.4429 H   0  0  0  0  0  0  0  0  0  0  0  0
    0.2378    1.0005    7.6012 C   0  0  0  0  0  0  0  0  0  0  0  0
   -1.0982    0.3970    7.2011 C   0  0  0  0  0  0  0  0  0  0  0  0
   -1.2137   -1.1052    7.3707 C   0  0  0  0  0  3  0  0  0  0  0  0
   -0.2611   -1.8227    8.0763 C   0  0  0  0  0  3  0  0  0  0  0  0
   -0.4237   -3.2086    8.2485 C   0  0  0  0  0  3  0  0  0  0  0  0
   -1.4806   -3.8611    7.7337 C   0  0  0  0  0  3  0  0  0  0  0  0
   -1.6718   -5.3670    7.8659 C   0  0  0  0  0  0  0  0  0  0  0  0
   -0.5305   -6.0398    8.6197 C   0  0  0  0  0  0  0  0  0  0  0  0
   -2.9682   -5.6374    8.6212 C   0  0  0  0  0  0  0  0  0  0  0  0
   -1.7380   -5.9712    6.4675 C   0  0  0  0  0  0  0  0  0  0  0  0
   -2.4286   -3.1262    7.0579 C   0  0  0  0  0  3  0  0  0  0  0  0
   -2.2886   -1.7659    6.8958 C   0  0  0  0  0  3  0  0  0  0  0  0
   -2.1090    1.1235    7.3975 O   0  0  0  0  0  0  0  0  0  0  0  0
    0.2130    1.1437    8.6667 H   0  0  0  0  0  0  0  0  0  0  0  0
    0.3584    1.9617    7.1363 H   0  0  0  0  0  0  0  0  0  0  0  0
    1.0633    0.3605    7.3527 H   0  0  0  0  0  0  0  0  0  0  0  0
    0.5912   -1.3440    8.5158 H   0  0  0  0  0  0  0  0  0  0  0  0
    0.3290   -3.7194    8.8166 H   0  0  0  0  0  0  0  0  0  0  0  0
   -0.4501   -5.6604    9.6226 H   0  0  0  0  0  0  0  0  0  0  0  0
   -0.7177   -7.0970    8.6803 H   0  0  0  0  0  0  0  0  0  0  0  0
    0.4055   -5.8975    8.1104 H   0  0  0  0  0  0  0  0  0  0  0  0
   -3.8147   -5.2140    8.1118 H   0  0  0  0  0  0  0  0  0  0  0  0
   -3.1278   -6.6963    8.7196 H   0  0  0  0  0  0  0  0  0  0  0  0
   -2.9196   -5.2067    9.6053 H   0  0  0  0  0  0  0  0  0  0  0  0
   -2.5780   -5.5893    5.9165 H   0  0  0  0  0  0  0  0  0  0  0  0
   -0.8431   -5.7371    5.9199 H   0  0  0  0  0  0  0  0  0  0  0  0
   -1.8337   -7.0404    6.5286 H   0  0  0  0  0  0  0  0  0  0  0  0
   -3.3015   -3.5967    6.6492 H   0  0  0  0  0  0  0  0  0  0  0  0
   -3.0591   -1.2192    6.3879 H   0  0  0  0  0  0  0  0  0  0  0  0
  1  2  1  0  0  0  0
  1 46  1  0  0  0  0
  1 56  1  0  0  0  0
  2  3  1  0  0  0  0
  2 57  1  0  0  0  0
  3  4  1  0  0  0  0
  3 58  1  0  0  0  0
  4  5  1  0  0  0  0
  4 45  1  0  0  0  0
  5  6  1  0  0  0  0
  5 12  1  0  0  0  0
  5 47  1  0  0  0  0
  6  7  1  0  0  0  0
  6 11  1  0  0  0  0
  7  8  1  0  0  0  0
  7 59  1  0  0  0  0
  8  9  1  0  0  0  0
  8 60  1  0  0  0  0
  9 10  1  0  0  0  0
  9 61  1  0  0  0  0
 10 11  1  0  0  0  0
 10 62  1  0  0  0  0
 11 63  1  0  0  0  0
 12 13  1  0  0  0  0
 12 44  1  0  0  0  0
 13 14  1  0  0  0  0
 13 37  1  0  0  0  0
 14 15  1  0  0  0  0
 14 36  1  0  0  0  0
 15 16  1  0  0  0  0
 15 29  1  0  0  0  0
 16 17  1  0  0  0  0
 16 23  1  0  0  0  0
 17 18  1  0  0  0  0
 17 22  1  0  0  0  0
 18 19  1  0  0  0  0
 18 64  1  0  0  0  0
 19 20  1  0  0  0  0
 19 65  1  0  0  0  0
 20 21  1  0  0  0  0
 20 66  1  0  0  0  0
 21 22  1  0  0  0  0
 21 67  1  0  0  0  0
 22 68  1  0  0  0  0
 23 24  1  0  0  0  0
 23 28  1  0  0  0  0
 24 25  1  0  0  0  0
 24 69  1  0  0  0  0
 25 26  1  0  0  0  0
 25 70  1  0  0  0  0
 26 27  1  0  0  0  0
 26 71  1  0  0  0  0
 27 28  1  0  0  0  0
 27 72  1  0  0  0  0
 28 73  1  0  0  0  0
 29 30  1  0  0  0  0
 29 74  1  0  0  0  0
 30 31  1  0  0  0  0
 30 49  1  0  0  0  0
 31 32  1  0  0  0  0
 31 36  1  0  0  0  0
 32 33  1  0  0  0  0
 32 75  1  0  0  0  0
 33 34  1  0  0  0  0
 33 76  1  0  0  0  0
 34 35  1  0  0  0  0
 34 77  1  0  0  0  0
 35 36  1  0  0  0  0
 35 78  1  0  0  0  0
 37 38  1  0  0  0  0
 37 42  1  0  0  0  0
 38 39  1  0  0  0  0
 38 79  1  0  0  0  0
 39 40  1  0  0  0  0
 39 80  1  0  0  0  0
 40 41  1  0  0  0  0
 40 81  1  0  0  0  0
 41 42  1  0  0  0  0
 41 82  1  0  0  0  0
 42 43  1  0  0  0  0
 43 44  1  0  0  0  0
 43 48  1  0  0  0  0
 44 83  1  0  0  0  0
 45 46  1  0  0  0  0
 45 84  1  0  0  0  0
 46 85  1  0  0  0  0
 47 16  1  0  0  0  0
 47109  1  0  0  0  0
 48 50  1  0  0  0  0
 48 51  1  0  0  0  0
 48 52  2  0  0  0  0
 49 53  1  0  0  0  0
 49 54  1  0  0  0  0
 49 55  2  0  0  0  0
 50 86  1  0  0  0  0
 51 87  1  0  0  0  0
 53 88  1  0  0  0  0
 54 89  1  0  0  0  0
 90 47  1  0  0  0  0
 91 47  1  0  0  0  0
 92 93  1  0  0  0  0
 92115  1  0  0  0  0
 92116  1  0  0  0  0
 92117  1  0  0  0  0
 93 94  1  0  0  0  0
 94 95  1  0  0  0  0
 94114  1  0  0  0  0
 95 96  1  0  0  0  0
 95118  1  0  0  0  0
 96 97  1  0  0  0  0
 96119  1  0  0  0  0
 97 98  1  0  0  0  0
 97113  1  0  0  0  0
 98 99  1  0  0  0  0
 98100  1  0  0  0  0
 98108  1  0  0  0  0
 99120  1  0  0  0  0
 99121  1  0  0  0  0
 99 47  1  0  0  0  0
100101  1  0  0  0  0
100107  1  0  0  0  0
101102  1  0  0  0  0
101122  1  0  0  0  0
102103  1  0  0  0  0
102123  1  0  0  0  0
103104  1  0  0  0  0
103106  1  0  0  0  0
104105  1  0  0  0  0
105124  1  0  0  0  0
105125  1  0  0  0  0
105126  1  0  0  0  0
106107  1  0  0  0  0
106127  1  0  0  0  0
107128  1  0  0  0  0
108109  1  0  0  0  0
108110  1  0  0  0  0
108129  1  0  0  0  0
109130  1  0  0  0  0
109131  1  0  0  0  0
110111  1  0  0  0  0
110112  1  0  0  0  0
110132  1  0  0  0  0
111133  1  0  0  0  0
111134  1  0  0  0  0
111135  1  0  0  0  0
112136  1  0  0  0  0
112137  1  0  0  0  0
112138  1  0  0  0  0
113114  1  0  0  0  0
113139  1  0  0  0  0
114140  1  0  0  0  0
141142  1  0  0  0  0
141154  1  0  0  0  0
141155  1  0  0  0  0
141156  1  0  0  0  0
142143  1  0  0  0  0
142153  2  0  0  0  0
142 90  1  0  0  0  0
143144  1  0  0  0  0
143152  1  0  0  0  0
144145  1  0  0  0  0
144157  1  0  0  0  0
145146  1  0  0  0  0
145158  1  0  0  0  0
146147  1  0  0  0  0
146151  1  0  0  0  0
147148  1  0  0  0  0
147149  1  0  0  0  0
147150  1  0  0  0  0
148159  1  0  0  0  0
148160  1  0  0  0  0
148161  1  0  0  0  0
149162  1  0  0  0  0
149163  1  0  0  0  0
149164  1  0  0  0  0
150165  1  0  0  0  0
150166  1  0  0  0  0
150167  1  0  0  0  0
151152  1  0  0  0  0
151168  1  0  0  0  0
152169  1  0  0  0  0
153131  1  0  0  0  0
M  END
