 energy: -248.263414176883 gnorm: 0.000801618674 xtb: 6.7.1 (edcfbbe)
          07072519383D

167180  0     0  0            999 V2000
    3.6120    4.2950    4.3840 C   0  0  0  0  0  3  0  0  0  0  0  0
    2.9600    3.3337    5.1412 C   0  0  0  0  0  3  0  0  0  0  0  0
    2.3254    2.2752    4.5131 C   0  0  0  0  0  3  0  0  0  0  0  0
    2.3713    2.1365    3.1260 C   0  0  0  0  0  3  0  0  0  0  0  0
    1.4746    0.6902    2.4027 P   0  0  0  0  0  4  0  0  0  0  0  0
    2.0682    0.8697    0.6670 C   0  0  0  0  0  3  0  0  0  0  0  0
    1.1983    1.1911   -0.3683 C   0  0  0  0  0  3  0  0  0  0  0  0
    1.6750    1.3484   -1.6602 C   0  0  0  0  0  3  0  0  0  0  0  0
    3.0265    1.1996   -1.9236 C   0  0  0  0  0  3  0  0  0  0  0  0
    3.9050    0.9031   -0.8920 C   0  0  0  0  0  3  0  0  0  0  0  0
    3.4305    0.7383    0.3977 C   0  0  0  0  0  3  0  0  0  0  0  0
    2.5615   -0.7387    2.8532 C   0  0  0  0  0  3  0  0  0  0  0  0
    2.4484   -1.9209    2.1345 C   0  0  0  0  0  3  0  0  0  0  0  0
    1.5945   -1.9690    0.9225 C   0  0  0  0  0  3  0  0  0  0  0  0
    0.2186   -1.8997    1.0445 C   0  0  0  0  0  3  0  0  0  0  0  0
   -0.5999   -1.6958    2.6786 P   0  0  0  0  0  4  0  0  0  0  0  0
   -2.1388   -2.7077    2.4867 C   0  0  0  0  0  3  0  0  0  0  0  0
   -3.0630   -2.5431    3.5143 C   0  0  0  0  0  3  0  0  0  0  0  0
   -4.2634   -3.2336    3.5086 C   0  0  0  0  0  3  0  0  0  0  0  0
   -4.5488   -4.1030    2.4675 C   0  0  0  0  0  3  0  0  0  0  0  0
   -3.6238   -4.2900    1.4523 C   0  0  0  0  0  3  0  0  0  0  0  0
   -2.4199   -3.6038    1.4577 C   0  0  0  0  0  3  0  0  0  0  0  0
    0.3032   -2.9052    3.7425 C   0  0  0  0  0  3  0  0  0  0  0  0
    0.9224   -2.4489    4.9007 C   0  0  0  0  0  3  0  0  0  0  0  0
    1.5927   -3.3320    5.7312 C   0  0  0  0  0  3  0  0  0  0  0  0
    1.6367   -4.6790    5.4110 C   0  0  0  0  0  3  0  0  0  0  0  0
    1.0060   -5.1429    4.2663 C   0  0  0  0  0  3  0  0  0  0  0  0
    0.3375   -4.2628    3.4328 C   0  0  0  0  0  3  0  0  0  0  0  0
   -0.5709   -1.6954   -0.1044 C   0  0  0  0  0  3  0  0  0  0  0  0
   -0.0155   -1.6713   -1.3544 C   0  0  0  0  0  3  0  0  0  0  0  0
    1.3712   -1.9279   -1.5283 C   0  0  0  0  0  3  0  0  0  0  0  0
    1.9528   -2.0450   -2.8087 C   0  0  0  0  0  3  0  0  0  0  0  0
    3.2967   -2.2606   -2.9475 C   0  0  0  0  0  3  0  0  0  0  0  0
    4.1155   -2.3517   -1.8122 C   0  0  0  0  0  3  0  0  0  0  0  0
    3.5812   -2.2412   -0.5576 C   0  0  0  0  0  3  0  0  0  0  0  0
    2.1906   -2.0556   -0.3729 C   0  0  0  0  0  3  0  0  0  0  0  0
    3.1868   -3.0763    2.5188 C   0  0  0  0  0  3  0  0  0  0  0  0
    3.0547   -4.3092    1.8356 C   0  0  0  0  0  3  0  0  0  0  0  0
    3.7681   -5.4075    2.2288 C   0  0  0  0  0  3  0  0  0  0  0  0
    4.6377   -5.3355    3.3287 C   0  0  0  0  0  3  0  0  0  0  0  0
    4.7784   -4.1646    4.0208 C   0  0  0  0  0  3  0  0  0  0  0  0
    4.0597   -3.0110    3.6376 C   0  0  0  0  0  3  0  0  0  0  0  0
    4.1844   -1.7771    4.3263 C   0  0  0  0  0  3  0  0  0  0  0  0
    3.4480   -0.6861    3.9443 C   0  0  0  0  0  3  0  0  0  0  0  0
    2.9960    3.1268    2.3729 C   0  0  0  0  0  3  0  0  0  0  0  0
    3.6102    4.1983    3.0021 C   0  0  0  0  0  3  0  0  0  0  0  0
   -0.7726    0.5938    2.9728 Ru  0  0  0  0  0  0  0  0  0  0  0  0
    5.3690   -1.6682    5.6934 P   0  0  0  0  0  0  0  0  0  0  0  0
   -1.0864   -1.1902   -2.7444 P   0  0  0  0  0  0  0  0  0  0  0  0
    5.3307   -0.1510    6.2364 O   0  0  0  0  0  0  0  0  0  0  0  0
    6.7242   -1.6895    4.8452 O   0  0  0  0  0  0  0  0  0  0  0  0
    5.2911   -2.6350    6.8139 O   0  0  0  0  0  0  0  0  0  0  0  0
    7.9660   -1.7806    5.5334 C   0  0  0  0  0  0  0  0  0  0  0  0
    8.3417   -3.2277    5.8104 C   0  0  0  0  0  0  0  0  0  0  0  0
    4.8569    0.0808    7.5564 C   0  0  0  0  0  0  0  0  0  0  0  0
    3.3408    0.1885    7.5911 C   0  0  0  0  0  0  0  0  0  0  0  0
   -2.3382   -0.4188   -2.0738 O   0  0  0  0  0  0  0  0  0  0  0  0
   -1.7513   -2.5970   -3.1104 O   0  0  0  0  0  0  0  0  0  0  0  0
   -0.5167   -0.4197   -3.8664 O   0  0  0  0  0  0  0  0  0  0  0  0
   -2.3450    1.0063   -2.0785 C   0  0  0  0  0  0  0  0  0  0  0  0
   -3.2801    1.5300   -3.1569 C   0  0  0  0  0  0  0  0  0  0  0  0
   -2.6298   -2.6613   -4.2246 C   0  0  0  0  0  0  0  0  0  0  0  0
   -1.8666   -2.8781   -5.5225 C   0  0  0  0  0  0  0  0  0  0  0  0
    4.1080    5.1251    4.8712 H   0  0  0  0  0  0  0  0  0  0  0  0
    2.9448    3.4205    6.2209 H   0  0  0  0  0  0  0  0  0  0  0  0
    1.7670    1.5423    5.0805 H   0  0  0  0  0  0  0  0  0  0  0  0
    0.1442    1.2963   -0.1448 H   0  0  0  0  0  0  0  0  0  0  0  0
    0.9944    1.5754   -2.4706 H   0  0  0  0  0  0  0  0  0  0  0  0
    3.3966    1.3157   -2.9342 H   0  0  0  0  0  0  0  0  0  0  0  0
    4.9638    0.7971   -1.0936 H   0  0  0  0  0  0  0  0  0  0  0  0
    4.1170    0.5071    1.2039 H   0  0  0  0  0  0  0  0  0  0  0  0
   -2.8121   -1.8778    4.3313 H   0  0  0  0  0  0  0  0  0  0  0  0
   -4.9715   -3.0930    4.3161 H   0  0  0  0  0  0  0  0  0  0  0  0
   -5.4882   -4.6412    2.4512 H   0  0  0  0  0  0  0  0  0  0  0  0
   -3.8396   -4.9811    0.6466 H   0  0  0  0  0  0  0  0  0  0  0  0
   -1.7078   -3.7671    0.6590 H   0  0  0  0  0  0  0  0  0  0  0  0
    0.8856   -1.3882    5.1141 H   0  0  0  0  0  0  0  0  0  0  0  0
    2.0929   -2.9780    6.6237 H   0  0  0  0  0  0  0  0  0  0  0  0
    2.1673   -5.3682    6.0553 H   0  0  0  0  0  0  0  0  0  0  0  0
    1.0395   -6.1971    4.0201 H   0  0  0  0  0  0  0  0  0  0  0  0
   -0.1519   -4.6233    2.5365 H   0  0  0  0  0  0  0  0  0  0  0  0
   -1.6269   -1.4955    0.0095 H   0  0  0  0  0  0  0  0  0  0  0  0
    1.3076   -1.9600   -3.6717 H   0  0  0  0  0  0  0  0  0  0  0  0
    3.7363   -2.3564   -3.9323 H   0  0  0  0  0  0  0  0  0  0  0  0
    5.1800   -2.5090   -1.9337 H   0  0  0  0  0  0  0  0  0  0  0  0
    4.2225   -2.3114    0.3109 H   0  0  0  0  0  0  0  0  0  0  0  0
    2.3769   -4.3691    0.9941 H   0  0  0  0  0  0  0  0  0  0  0  0
    3.6599   -6.3437    1.6955 H   0  0  0  0  0  0  0  0  0  0  0  0
    5.1914   -6.2164    3.6281 H   0  0  0  0  0  0  0  0  0  0  0  0
    5.4300   -4.1016    4.8811 H   0  0  0  0  0  0  0  0  0  0  0  0
    3.5822    0.2430    4.4792 H   0  0  0  0  0  0  0  0  0  0  0  0
    3.0078    3.0669    1.2926 H   0  0  0  0  0  0  0  0  0  0  0  0
    4.0956    4.9608    2.4053 H   0  0  0  0  0  0  0  0  0  0  0  0
    8.7043   -1.3029    4.8764 H   0  0  0  0  0  0  0  0  0  0  0  0
    7.9130   -1.2170    6.4741 H   0  0  0  0  0  0  0  0  0  0  0  0
    7.6048   -3.6740    6.4764 H   0  0  0  0  0  0  0  0  0  0  0  0
    9.3238   -3.2727    6.2802 H   0  0  0  0  0  0  0  0  0  0  0  0
    8.3632   -3.7911    4.8784 H   0  0  0  0  0  0  0  0  0  0  0  0
    5.1824   -0.7429    8.2044 H   0  0  0  0  0  0  0  0  0  0  0  0
    5.3291    1.0163    7.8844 H   0  0  0  0  0  0  0  0  0  0  0  0
    3.0097    1.0212    6.9724 H   0  0  0  0  0  0  0  0  0  0  0  0
    3.0014    0.3435    8.6148 H   0  0  0  0  0  0  0  0  0  0  0  0
    2.9119   -0.7355    7.2068 H   0  0  0  0  0  0  0  0  0  0  0  0
   -2.6771    1.3165   -1.0805 H   0  0  0  0  0  0  0  0  0  0  0  0
   -1.3291    1.3789   -2.2573 H   0  0  0  0  0  0  0  0  0  0  0  0
   -4.2822    1.1297   -3.0089 H   0  0  0  0  0  0  0  0  0  0  0  0
   -2.9114    1.2231   -4.1347 H   0  0  0  0  0  0  0  0  0  0  0  0
   -3.3213    2.6181   -3.1155 H   0  0  0  0  0  0  0  0  0  0  0  0
   -3.3056   -3.5021   -4.0228 H   0  0  0  0  0  0  0  0  0  0  0  0
   -3.2216   -1.7380   -4.2835 H   0  0  0  0  0  0  0  0  0  0  0  0
   -1.2741   -3.7896   -5.4590 H   0  0  0  0  0  0  0  0  0  0  0  0
   -1.1978   -2.0358   -5.6924 H   0  0  0  0  0  0  0  0  0  0  0  0
   -2.5641   -2.9601   -6.3556 H   0  0  0  0  0  0  0  0  0  0  0  0
   -0.6262    0.5978    4.7161 H   0  0  0  0  0  0  0  0  0  0  0  0
   -1.1382    0.6629    1.4218 H   0  0  0  0  0  0  0  0  0  0  0  0
   -1.2064    2.6805    3.0062 N   0  0  0  0  0  4  0  0  0  0  0  0
   -2.4299    2.9485    2.2405 C   0  0  0  0  0  0  0  0  0  0  0  0
   -2.9308    4.3565    2.4570 C   0  0  0  0  0  3  0  0  0  0  0  0
   -3.1842    5.1883    1.3718 C   0  0  0  0  0  3  0  0  0  0  0  0
   -3.6646    6.4731    1.5681 C   0  0  0  0  0  3  0  0  0  0  0  0
   -3.8916    6.9400    2.8529 C   0  0  0  0  0  3  0  0  0  0  0  0
   -3.6360    6.1180    3.9395 C   0  0  0  0  0  3  0  0  0  0  0  0
   -3.1602    4.8319    3.7453 C   0  0  0  0  0  3  0  0  0  0  0  0
   -3.5018    1.9093    2.6271 C   0  0  0  0  0  0  0  0  0  0  0  0
   -2.8524    0.8480    3.4098 N   0  0  0  0  0  4  0  0  0  0  0  0
   -4.2385    1.3754    1.4215 C   0  0  0  0  0  3  0  0  0  0  0  0
   -4.0689    0.0733    0.9616 C   0  0  0  0  0  3  0  0  0  0  0  0
   -4.7987   -0.3926   -0.1192 C   0  0  0  0  0  3  0  0  0  0  0  0
   -5.7050    0.4386   -0.7581 C   0  0  0  0  0  3  0  0  0  0  0  0
   -5.8667    1.7432   -0.3189 C   0  0  0  0  0  3  0  0  0  0  0  0
   -5.1406    2.2068    0.7660 C   0  0  0  0  0  3  0  0  0  0  0  0
   -0.4600    3.2741    2.6554 H   0  0  0  0  0  0  0  0  0  0  0  0
   -1.3577    2.9361    3.9904 H   0  0  0  0  0  0  0  0  0  0  0  0
   -2.1806    2.8146    1.1801 H   0  0  0  0  0  0  0  0  0  0  0  0
   -3.0073    4.8226    0.3675 H   0  0  0  0  0  0  0  0  0  0  0  0
   -3.8609    7.1106    0.7151 H   0  0  0  0  0  0  0  0  0  0  0  0
   -4.2669    7.9436    3.0073 H   0  0  0  0  0  0  0  0  0  0  0  0
   -3.8099    6.4795    4.9453 H   0  0  0  0  0  0  0  0  0  0  0  0
   -2.9671    4.2008    4.6046 H   0  0  0  0  0  0  0  0  0  0  0  0
   -4.2482    2.4083    3.2604 H   0  0  0  0  0  0  0  0  0  0  0  0
   -2.7875    1.2183    4.3532 H   0  0  0  0  0  0  0  0  0  0  0  0
   -3.4611    0.0357    3.4420 H   0  0  0  0  0  0  0  0  0  0  0  0
   -3.3484   -0.5834    1.4326 H   0  0  0  0  0  0  0  0  0  0  0  0
   -4.6533   -1.4093   -0.4619 H   0  0  0  0  0  0  0  0  0  0  0  0
   -6.2858    0.0707   -1.5942 H   0  0  0  0  0  0  0  0  0  0  0  0
   -6.5677    2.4020   -0.8159 H   0  0  0  0  0  0  0  0  0  0  0  0
   -5.2799    3.2228    1.1152 H   0  0  0  0  0  0  0  0  0  0  0  0
   -1.8716    2.3114    5.7294 O   0  0  0  0  0  0  0  0  0  0  0  0
   -1.4110    1.2047    6.1230 C   0  0  0  0  0  0  0  0  0  0  0  0
   -0.2608    1.2097    7.1219 C   0  0  0  0  0  0  0  0  0  0  0  0
    0.2288    2.6252    7.3880 C   0  0  0  0  0  0  0  0  0  0  0  0
   -2.3654    0.0511    6.3703 C   0  0  0  0  0  3  0  0  0  0  0  0
   -1.9056   -1.2233    6.6639 C   0  0  0  0  0  3  0  0  0  0  0  0
   -2.8308   -2.2323    6.9833 C   0  0  0  0  0  3  0  0  0  0  0  0
   -4.1450   -1.9589    7.0096 C   0  0  0  0  0  3  0  0  0  0  0  0
   -4.5946   -0.6925    6.7233 C   0  0  0  0  0  3  0  0  0  0  0  0
   -3.6912    0.2997    6.4090 C   0  0  0  0  0  3  0  0  0  0  0  0
   -0.6352    0.7874    8.0394 H   0  0  0  0  0  0  0  0  0  0  0  0
    0.5497    0.5849    6.7888 H   0  0  0  0  0  0  0  0  0  0  0  0
   -0.5625    3.2069    7.8261 H   0  0  0  0  0  0  0  0  0  0  0  0
    1.0646    2.6093    8.0647 H   0  0  0  0  0  0  0  0  0  0  0  0
    0.5191    3.1031    6.4696 H   0  0  0  0  0  0  0  0  0  0  0  0
   -0.8603   -1.4574    6.6345 H   0  0  0  0  0  0  0  0  0  0  0  0
   -2.4601   -3.2152    7.2006 H   0  0  0  0  0  0  0  0  0  0  0  0
   -4.8537   -2.7249    7.2602 H   0  0  0  0  0  0  0  0  0  0  0  0
   -5.6435   -0.4689    6.7520 H   0  0  0  0  0  0  0  0  0  0  0  0
   -4.0489    1.2940    6.2209 H   0  0  0  0  0  0  0  0  0  0  0  0
  1  2  1  0  0  0  0
  1 46  1  0  0  0  0
  1 64  1  0  0  0  0
  2  3  1  0  0  0  0
  2 65  1  0  0  0  0
  3  4  1  0  0  0  0
  3 66  1  0  0  0  0
  4  5  1  0  0  0  0
  4 45  1  0  0  0  0
  5  6  1  0  0  0  0
  5 12  1  0  0  0  0
  5 47  1  0  0  0  0
  6  7  1  0  0  0  0
  6 11  1  0  0  0  0
  7  8  1  0  0  0  0
  7 67  1  0  0  0  0
  8  9  1  0  0  0  0
  8 68  1  0  0  0  0
  9 10  1  0  0  0  0
  9 69  1  0  0  0  0
 10 11  1  0  0  0  0
 10 70  1  0  0  0  0
 11 71  1  0  0  0  0
 12 13  1  0  0  0  0
 12 44  1  0  0  0  0
 13 14  1  0  0  0  0
 13 37  1  0  0  0  0
 14 15  1  0  0  0  0
 14 36  1  0  0  0  0
 15 16  1  0  0  0  0
 15 29  1  0  0  0  0
 16 17  1  0  0  0  0
 16 23  1  0  0  0  0
 17 18  1  0  0  0  0
 17 22  1  0  0  0  0
 18 19  1  0  0  0  0
 18 72  1  0  0  0  0
 19 20  1  0  0  0  0
 19 73  1  0  0  0  0
 20 21  1  0  0  0  0
 20 74  1  0  0  0  0
 21 22  1  0  0  0  0
 21 75  1  0  0  0  0
 22 76  1  0  0  0  0
 23 24  1  0  0  0  0
 23 28  1  0  0  0  0
 24 25  1  0  0  0  0
 24 77  1  0  0  0  0
 25 26  1  0  0  0  0
 25 78  1  0  0  0  0
 26 27  1  0  0  0  0
 26 79  1  0  0  0  0
 27 28  1  0  0  0  0
 27 80  1  0  0  0  0
 28 81  1  0  0  0  0
 29 30  1  0  0  0  0
 29 82  1  0  0  0  0
 30 31  1  0  0  0  0
 30 49  1  0  0  0  0
 31 32  1  0  0  0  0
 31 36  1  0  0  0  0
 32 33  1  0  0  0  0
 32 83  1  0  0  0  0
 33 34  1  0  0  0  0
 33 84  1  0  0  0  0
 34 35  1  0  0  0  0
 34 85  1  0  0  0  0
 35 36  1  0  0  0  0
 35 86  1  0  0  0  0
 37 38  1  0  0  0  0
 37 42  1  0  0  0  0
 38 39  1  0  0  0  0
 38 87  1  0  0  0  0
 39 40  1  0  0  0  0
 39 88  1  0  0  0  0
 40 41  1  0  0  0  0
 40 89  1  0  0  0  0
 41 42  1  0  0  0  0
 41 90  1  0  0  0  0
 42 43  1  0  0  0  0
 43 44  1  0  0  0  0
 43 48  1  0  0  0  0
 44 91  1  0  0  0  0
 45 46  1  0  0  0  0
 45 92  1  0  0  0  0
 46 93  1  0  0  0  0
 47 16  1  0  0  0  0
 47116  1  0  0  0  0
 48 50  1  0  0  0  0
 48 51  1  0  0  0  0
 48 52  2  0  0  0  0
 49 57  1  0  0  0  0
 49 58  1  0  0  0  0
 49 59  2  0  0  0  0
 50 55  1  0  0  0  0
 51 53  1  0  0  0  0
 53 54  1  0  0  0  0
 53 94  1  0  0  0  0
 53 95  1  0  0  0  0
 54 96  1  0  0  0  0
 54 97  1  0  0  0  0
 54 98  1  0  0  0  0
 55 56  1  0  0  0  0
 55 99  1  0  0  0  0
 55100  1  0  0  0  0
 56101  1  0  0  0  0
 56102  1  0  0  0  0
 56103  1  0  0  0  0
 57 60  1  0  0  0  0
 58 62  1  0  0  0  0
 60 61  1  0  0  0  0
 60104  1  0  0  0  0
 60105  1  0  0  0  0
 61106  1  0  0  0  0
 61107  1  0  0  0  0
 61108  1  0  0  0  0
 62 63  1  0  0  0  0
 62109  1  0  0  0  0
 62110  1  0  0  0  0
 63111  1  0  0  0  0
 63112  1  0  0  0  0
 63113  1  0  0  0  0
114 47  1  0  0  0  0
115 47  1  0  0  0  0
116117  1  0  0  0  0
116132  1  0  0  0  0
116133  1  0  0  0  0
117118  1  0  0  0  0
117124  1  0  0  0  0
117134  1  0  0  0  0
118119  1  0  0  0  0
118123  1  0  0  0  0
119120  1  0  0  0  0
119135  1  0  0  0  0
120121  1  0  0  0  0
120136  1  0  0  0  0
121122  1  0  0  0  0
121137  1  0  0  0  0
122123  1  0  0  0  0
122138  1  0  0  0  0
123139  1  0  0  0  0
124125  1  0  0  0  0
124126  1  0  0  0  0
124140  1  0  0  0  0
125141  1  0  0  0  0
125142  1  0  0  0  0
125 47  1  0  0  0  0
126127  1  0  0  0  0
126131  1  0  0  0  0
127128  1  0  0  0  0
127143  1  0  0  0  0
128129  1  0  0  0  0
128144  1  0  0  0  0
129130  1  0  0  0  0
129145  1  0  0  0  0
130131  1  0  0  0  0
130146  1  0  0  0  0
131147  1  0  0  0  0
148149  2  0  0  0  0
148133  1  0  0  0  0
149150  1  0  0  0  0
149152  1  0  0  0  0
149114  1  0  0  0  0
150151  1  0  0  0  0
150158  1  0  0  0  0
150159  1  0  0  0  0
151160  1  0  0  0  0
151161  1  0  0  0  0
151162  1  0  0  0  0
152153  1  0  0  0  0
152157  1  0  0  0  0
153154  1  0  0  0  0
153163  1  0  0  0  0
154155  1  0  0  0  0
154164  1  0  0  0  0
155156  1  0  0  0  0
155165  1  0  0  0  0
156157  1  0  0  0  0
156166  1  0  0  0  0
157167  1  0  0  0  0
M  END
