 energy: -221.685045389202 gnorm: 0.000846176474 xtb: 6.7.1 (edcfbbe)
          07072520403D

150162  0     0  0            999 V2000
    5.9770   -2.8483    6.1006 C   0  0  0  0  0  0  0  0  0  0  0  0
    5.3864   -1.6755    5.5732 O   0  0  0  0  0  0  0  0  0  0  0  0
    4.4552   -1.8613    4.6077 C   0  0  0  0  0  3  0  0  0  0  0  0
    3.8290   -0.7413    4.0719 C   0  0  0  0  0  3  0  0  0  0  0  0
    2.8854   -0.9255    3.0719 C   0  0  0  0  0  3  0  0  0  0  0  0
    1.8879    0.4331    2.3286 P   0  0  0  0  0  4  0  0  0  0  0  0
    2.4549    0.2014    0.5914 C   0  0  0  0  0  3  0  0  0  0  0  0
    1.5413    0.2411   -0.4553 C   0  0  0  0  0  3  0  0  0  0  0  0
    1.9635    0.0644   -1.7612 C   0  0  0  0  0  3  0  0  0  0  0  0
    3.3081   -0.1437   -2.0495 C   0  0  0  0  0  3  0  0  0  0  0  0
    4.2203   -0.1702   -0.9995 C   0  0  0  0  0  3  0  0  0  0  0  0
    3.8037   -0.0063    0.3100 C   0  0  0  0  0  3  0  0  0  0  0  0
    2.8395    1.9432    2.7760 C   0  0  0  0  0  3  0  0  0  0  0  0
    2.8486    2.3184    4.1196 C   0  0  0  0  0  3  0  0  0  0  0  0
    3.4257    3.5091    4.5225 C   0  0  0  0  0  3  0  0  0  0  0  0
    3.9923    4.3719    3.5886 C   0  0  0  0  0  3  0  0  0  0  0  0
    3.9574    4.0099    2.2470 C   0  0  0  0  0  3  0  0  0  0  0  0
    3.3864    2.8150    1.8396 C   0  0  0  0  0  3  0  0  0  0  0  0
    2.5913   -2.2216    2.6370 C   0  0  0  0  0  3  0  0  0  0  0  0
    1.7739   -2.4948    1.4295 C   0  0  0  0  0  3  0  0  0  0  0  0
    2.4921   -2.9615    0.3148 C   0  0  0  0  0  3  0  0  0  0  0  0
    3.8294   -3.1243    0.4414 O   0  0  0  0  0  0  0  0  0  0  0  0
    4.5027   -3.5977   -0.7084 C   0  0  0  0  0  0  0  0  0  0  0  0
    1.9486   -3.2204   -0.8691 N   0  0  0  0  0  2  0  0  0  0  0  0
    0.6382   -3.0321   -1.0002 C   0  0  0  0  0  3  0  0  0  0  0  0
    0.0746   -3.2624   -2.2098 O   0  0  0  0  0  0  0  0  0  0  0  0
    0.9643   -3.6568   -3.2369 C   0  0  0  0  0  0  0  0  0  0  0  0
   -0.1756   -2.6109    0.0448 C   0  0  0  0  0  3  0  0  0  0  0  0
    0.3918   -2.3383    1.2819 C   0  0  0  0  0  3  0  0  0  0  0  0
   -0.6687   -1.6153    2.6055 P   0  0  0  0  0  4  0  0  0  0  0  0
   -2.3477   -2.0326    1.9727 C   0  0  0  0  0  3  0  0  0  0  0  0
   -3.0106   -3.2193    2.2716 C   0  0  0  0  0  3  0  0  0  0  0  0
   -4.2892   -3.4489    1.7912 C   0  0  0  0  0  3  0  0  0  0  0  0
   -4.9424   -2.5106    1.0000 C   0  0  0  0  0  3  0  0  0  0  0  0
   -4.2722   -1.3333    0.6841 C   0  0  0  0  0  3  0  0  0  0  0  0
   -2.9945   -1.1003    1.1616 C   0  0  0  0  0  3  0  0  0  0  0  0
   -0.5961   -2.8958    3.9258 C   0  0  0  0  0  3  0  0  0  0  0  0
    0.1252   -4.0852    3.8511 C   0  0  0  0  0  3  0  0  0  0  0  0
    0.0675   -4.9923    4.8944 C   0  0  0  0  0  3  0  0  0  0  0  0
   -0.7279   -4.7563    6.0117 C   0  0  0  0  0  3  0  0  0  0  0  0
   -1.4742   -3.5847    6.0615 C   0  0  0  0  0  3  0  0  0  0  0  0
   -1.3956   -2.6568    5.0376 C   0  0  0  0  0  3  0  0  0  0  0  0
    3.2984   -3.2745    3.2410 C   0  0  0  0  0  3  0  0  0  0  0  0
    3.0585   -4.5378    2.8194 O   0  0  0  0  0  0  0  0  0  0  0  0
    3.7951   -5.5565    3.4665 C   0  0  0  0  0  0  0  0  0  0  0  0
    4.1897   -3.1033    4.2113 N   0  0  0  0  0  2  0  0  0  0  0  0
   -0.3129    0.6327    2.9745 Ru  0  0  0  0  0  0  0  0  0  0  0  0
   -6.3423   -2.7523    0.5126 C   0  0  0  0  0  0  0  0  0  0  0  0
   -0.8050   -5.7593    7.1276 C   0  0  0  0  0  0  0  0  0  0  0  0
    4.5929    5.6783    4.0227 C   0  0  0  0  0  0  0  0  0  0  0  0
    3.7755   -0.3140   -3.4674 C   0  0  0  0  0  0  0  0  0  0  0  0
    6.6998   -2.5108    6.8440 H   0  0  0  0  0  0  0  0  0  0  0  0
    6.4784   -3.4196    5.3127 H   0  0  0  0  0  0  0  0  0  0  0  0
    5.2210   -3.4858    6.5708 H   0  0  0  0  0  0  0  0  0  0  0  0
    4.1168    0.2364    4.4275 H   0  0  0  0  0  0  0  0  0  0  0  0
    0.4963    0.4002   -0.2223 H   0  0  0  0  0  0  0  0  0  0  0  0
    1.2393    0.0847   -2.5666 H   0  0  0  0  0  0  0  0  0  0  0  0
    5.2715   -0.3262   -1.2106 H   0  0  0  0  0  0  0  0  0  0  0  0
    4.5229   -0.0415    1.1195 H   0  0  0  0  0  0  0  0  0  0  0  0
    2.3852    1.6601    4.8433 H   0  0  0  0  0  0  0  0  0  0  0  0
    3.4360    3.7769    5.5725 H   0  0  0  0  0  0  0  0  0  0  0  0
    4.3839    4.6754    1.5059 H   0  0  0  0  0  0  0  0  0  0  0  0
    3.3664    2.5600    0.7878 H   0  0  0  0  0  0  0  0  0  0  0  0
    5.5592   -3.6350   -0.4412 H   0  0  0  0  0  0  0  0  0  0  0  0
    4.3430   -2.9191   -1.5525 H   0  0  0  0  0  0  0  0  0  0  0  0
    4.1441   -4.5944   -0.9846 H   0  0  0  0  0  0  0  0  0  0  0  0
    1.7495   -2.9062   -3.3760 H   0  0  0  0  0  0  0  0  0  0  0  0
    0.3588   -3.7498   -4.1391 H   0  0  0  0  0  0  0  0  0  0  0  0
    1.4361   -4.6150   -2.9959 H   0  0  0  0  0  0  0  0  0  0  0  0
   -1.2334   -2.4942   -0.1356 H   0  0  0  0  0  0  0  0  0  0  0  0
   -2.5293   -3.9731    2.8808 H   0  0  0  0  0  0  0  0  0  0  0  0
   -4.7890   -4.3785    2.0359 H   0  0  0  0  0  0  0  0  0  0  0  0
   -4.7570   -0.5963    0.0547 H   0  0  0  0  0  0  0  0  0  0  0  0
   -2.4591   -0.1986    0.8920 H   0  0  0  0  0  0  0  0  0  0  0  0
    0.7228   -4.3072    2.9759 H   0  0  0  0  0  0  0  0  0  0  0  0
    0.6429   -5.9085    4.8340 H   0  0  0  0  0  0  0  0  0  0  0  0
   -2.1110   -3.3897    6.9158 H   0  0  0  0  0  0  0  0  0  0  0  0
   -1.9613   -1.7352    5.0981 H   0  0  0  0  0  0  0  0  0  0  0  0
    3.4780   -6.4929    3.0064 H   0  0  0  0  0  0  0  0  0  0  0  0
    3.5799   -5.5667    4.5398 H   0  0  0  0  0  0  0  0  0  0  0  0
    4.8702   -5.4079    3.3239 H   0  0  0  0  0  0  0  0  0  0  0  0
   -6.4970   -2.2976   -0.4657 H   0  0  0  0  0  0  0  0  0  0  0  0
   -7.0583   -2.3118    1.2073 H   0  0  0  0  0  0  0  0  0  0  0  0
   -6.5507   -3.8216    0.4443 H   0  0  0  0  0  0  0  0  0  0  0  0
    0.1327   -6.3113    7.2189 H   0  0  0  0  0  0  0  0  0  0  0  0
   -1.6019   -6.4775    6.9322 H   0  0  0  0  0  0  0  0  0  0  0  0
   -1.0195   -5.2620    8.0737 H   0  0  0  0  0  0  0  0  0  0  0  0
    5.0867    5.5747    4.9892 H   0  0  0  0  0  0  0  0  0  0  0  0
    3.8106    6.4338    4.1233 H   0  0  0  0  0  0  0  0  0  0  0  0
    5.3171    6.0355    3.2910 H   0  0  0  0  0  0  0  0  0  0  0  0
    2.9378   -0.5403   -4.1290 H   0  0  0  0  0  0  0  0  0  0  0  0
    4.5126   -1.1154   -3.5433 H   0  0  0  0  0  0  0  0  0  0  0  0
    4.2461    0.6047   -3.8182 H   0  0  0  0  0  0  0  0  0  0  0  0
   -0.0590    0.4462    4.6954 H   0  0  0  0  0  0  0  0  0  0  0  0
   -0.7198    1.0025    1.4782 H   0  0  0  0  0  0  0  0  0  0  0  0
   -2.3181    1.0783    3.5553 N   0  0  0  0  0  4  0  0  0  0  0  0
   -2.5294    2.5032    3.8422 C   0  0  0  0  0  0  0  0  0  0  0  0
   -3.9159    2.9833    3.4855 C   0  0  0  0  0  3  0  0  0  0  0  0
   -4.4613    2.6968    2.2375 C   0  0  0  0  0  3  0  0  0  0  0  0
   -5.7102    3.1827    1.8880 C   0  0  0  0  0  3  0  0  0  0  0  0
   -6.4246    3.9690    2.7780 C   0  0  0  0  0  3  0  0  0  0  0  0
   -5.8861    4.2640    4.0202 C   0  0  0  0  0  3  0  0  0  0  0  0
   -4.6390    3.7733    4.3720 C   0  0  0  0  0  3  0  0  0  0  0  0
   -1.4924    3.3337    3.0603 C   0  0  0  0  0  0  0  0  0  0  0  0
   -0.1738    2.7347    3.3007 N   0  0  0  0  0  4  0  0  0  0  0  0
   -1.5866    4.7935    3.4360 C   0  0  0  0  0  3  0  0  0  0  0  0
   -2.3634    5.6490    2.6618 C   0  0  0  0  0  3  0  0  0  0  0  0
   -2.5044    6.9837    3.0052 C   0  0  0  0  0  3  0  0  0  0  0  0
   -1.8640    7.4839    4.1277 C   0  0  0  0  0  3  0  0  0  0  0  0
   -1.0861    6.6406    4.9049 C   0  0  0  0  0  3  0  0  0  0  0  0
   -0.9519    5.3048    4.5642 C   0  0  0  0  0  3  0  0  0  0  0  0
   -2.5091    0.5591    4.4209 H   0  0  0  0  0  0  0  0  0  0  0  0
   -2.9901    0.7527    2.8665 H   0  0  0  0  0  0  0  0  0  0  0  0
   -2.3554    2.6542    4.9151 H   0  0  0  0  0  0  0  0  0  0  0  0
   -3.9061    2.1010    1.5231 H   0  0  0  0  0  0  0  0  0  0  0  0
   -6.1237    2.9525    0.9140 H   0  0  0  0  0  0  0  0  0  0  0  0
   -7.3985    4.3529    2.5021 H   0  0  0  0  0  0  0  0  0  0  0  0
   -6.4386    4.8800    4.7186 H   0  0  0  0  0  0  0  0  0  0  0  0
   -4.2199    4.0070    5.3430 H   0  0  0  0  0  0  0  0  0  0  0  0
   -1.7026    3.2215    1.9890 H   0  0  0  0  0  0  0  0  0  0  0  0
    0.5177    3.1851    2.7078 H   0  0  0  0  0  0  0  0  0  0  0  0
    0.1043    2.8870    4.2660 H   0  0  0  0  0  0  0  0  0  0  0  0
   -2.8660    5.2629    1.7834 H   0  0  0  0  0  0  0  0  0  0  0  0
   -3.1151    7.6347    2.3922 H   0  0  0  0  0  0  0  0  0  0  0  0
   -1.9698    8.5272    4.3969 H   0  0  0  0  0  0  0  0  0  0  0  0
   -0.5829    7.0227    5.7844 H   0  0  0  0  0  0  0  0  0  0  0  0
   -0.3438    4.6674    5.1946 H   0  0  0  0  0  0  0  0  0  0  0  0
    0.1130    1.7078    6.8149 C   0  0  0  0  0  0  0  0  0  0  0  0
   -0.6238    0.4715    6.3222 C   0  0  0  0  0  0  0  0  0  0  0  0
    0.0596   -0.7760    6.8474 C   0  0  0  0  0  3  0  0  0  0  0  0
   -0.4248   -1.3236    8.0712 C   0  0  0  0  0  3  0  0  0  0  0  0
   -1.5455   -0.8080    8.7639 C   0  0  0  0  0  3  0  0  0  0  0  0
   -1.9833   -1.3741    9.9314 C   0  0  0  0  0  3  0  0  0  0  0  0
   -1.3173   -2.4884   10.4807 C   0  0  0  0  0  3  0  0  0  0  0  0
   -0.2291   -3.0111    9.8423 C   0  0  0  0  0  3  0  0  0  0  0  0
    0.2468   -2.4545    8.6298 C   0  0  0  0  0  3  0  0  0  0  0  0
    1.3522   -3.0058    7.9670 C   0  0  0  0  0  3  0  0  0  0  0  0
    1.7938   -2.4559    6.7841 C   0  0  0  0  0  3  0  0  0  0  0  0
    1.1430   -1.3371    6.2440 C   0  0  0  0  0  3  0  0  0  0  0  0
   -1.8804    0.5163    6.2303 O   0  0  0  0  0  0  0  0  0  0  0  0
    1.1618    1.6700    6.5827 H   0  0  0  0  0  0  0  0  0  0  0  0
    0.0048    1.7253    7.8850 H   0  0  0  0  0  0  0  0  0  0  0  0
   -0.3291    2.6056    6.4218 H   0  0  0  0  0  0  0  0  0  0  0  0
   -2.0749    0.0252    8.3463 H   0  0  0  0  0  0  0  0  0  0  0  0
   -2.8397   -0.9724   10.4368 H   0  0  0  0  0  0  0  0  0  0  0  0
   -1.6735   -2.9184   11.3964 H   0  0  0  0  0  0  0  0  0  0  0  0
    0.2877   -3.8583   10.2490 H   0  0  0  0  0  0  0  0  0  0  0  0
    1.8402   -3.8625    8.3886 H   0  0  0  0  0  0  0  0  0  0  0  0
    2.6275   -2.8810    6.2613 H   0  0  0  0  0  0  0  0  0  0  0  0
    1.4920   -0.9428    5.3103 H   0  0  0  0  0  0  0  0  0  0  0  0
  1  2  1  0  0  0  0
  1 52  1  0  0  0  0
  1 53  1  0  0  0  0
  1 54  1  0  0  0  0
  3  2  1  0  0  0  0
  3  4  1  0  0  0  0
  3 46  1  0  0  0  0
  4 55  1  0  0  0  0
  5  4  1  0  0  0  0
  5  6  1  0  0  0  0
  5 19  1  0  0  0  0
  6  7  1  0  0  0  0
  6 13  1  0  0  0  0
  6 47  1  0  0  0  0
  7  8  1  0  0  0  0
  7 12  1  0  0  0  0
  8  9  1  0  0  0  0
  8 56  1  0  0  0  0
  9 10  1  0  0  0  0
  9 57  1  0  0  0  0
 10 11  1  0  0  0  0
 10 51  1  0  0  0  0
 11 12  1  0  0  0  0
 11 58  1  0  0  0  0
 12 59  1  0  0  0  0
 13 14  1  0  0  0  0
 13 18  1  0  0  0  0
 14 15  1  0  0  0  0
 14 60  1  0  0  0  0
 15 16  1  0  0  0  0
 15 61  1  0  0  0  0
 16 17  1  0  0  0  0
 16 50  1  0  0  0  0
 17 18  1  0  0  0  0
 17 62  1  0  0  0  0
 18 63  1  0  0  0  0
 19 20  1  0  0  0  0
 19 43  1  0  0  0  0
 20 21  1  0  0  0  0
 20 29  1  0  0  0  0
 21 22  1  0  0  0  0
 21 24  1  0  0  0  0
 22 23  1  0  0  0  0
 23 64  1  0  0  0  0
 23 65  1  0  0  0  0
 23 66  1  0  0  0  0
 24 25  1  0  0  0  0
 25 26  1  0  0  0  0
 25 28  1  0  0  0  0
 26 27  1  0  0  0  0
 27 67  1  0  0  0  0
 27 68  1  0  0  0  0
 27 69  1  0  0  0  0
 28 29  1  0  0  0  0
 28 70  1  0  0  0  0
 29 30  1  0  0  0  0
 30 31  1  0  0  0  0
 30 37  1  0  0  0  0
 31 32  1  0  0  0  0
 31 36  1  0  0  0  0
 32 33  1  0  0  0  0
 32 71  1  0  0  0  0
 33 34  1  0  0  0  0
 33 72  1  0  0  0  0
 34 35  1  0  0  0  0
 34 48  1  0  0  0  0
 35 36  1  0  0  0  0
 35 73  1  0  0  0  0
 36 74  1  0  0  0  0
 37 38  1  0  0  0  0
 37 42  1  0  0  0  0
 38 39  1  0  0  0  0
 38 75  1  0  0  0  0
 39 40  1  0  0  0  0
 39 76  1  0  0  0  0
 40 41  1  0  0  0  0
 40 49  1  0  0  0  0
 41 42  1  0  0  0  0
 41 77  1  0  0  0  0
 42 78  1  0  0  0  0
 43 44  1  0  0  0  0
 43 46  1  0  0  0  0
 44 45  1  0  0  0  0
 45 79  1  0  0  0  0
 45 80  1  0  0  0  0
 45 81  1  0  0  0  0
 47 30  1  0  0  0  0
 47 96  1  0  0  0  0
 48 82  1  0  0  0  0
 48 83  1  0  0  0  0
 48 84  1  0  0  0  0
 49 85  1  0  0  0  0
 49 86  1  0  0  0  0
 49 87  1  0  0  0  0
 50 88  1  0  0  0  0
 50 89  1  0  0  0  0
 50 90  1  0  0  0  0
 51 91  1  0  0  0  0
 51 92  1  0  0  0  0
 51 93  1  0  0  0  0
 94 47  1  0  0  0  0
 95 47  1  0  0  0  0
 96 97  1  0  0  0  0
 96112  1  0  0  0  0
 96113  1  0  0  0  0
 97 98  1  0  0  0  0
 97104  1  0  0  0  0
 97114  1  0  0  0  0
 98 99  1  0  0  0  0
 98103  1  0  0  0  0
 99100  1  0  0  0  0
 99115  1  0  0  0  0
100101  1  0  0  0  0
100116  1  0  0  0  0
101102  1  0  0  0  0
101117  1  0  0  0  0
102103  1  0  0  0  0
102118  1  0  0  0  0
103119  1  0  0  0  0
104105  1  0  0  0  0
104106  1  0  0  0  0
104120  1  0  0  0  0
105121  1  0  0  0  0
105122  1  0  0  0  0
105 47  1  0  0  0  0
106107  1  0  0  0  0
106111  1  0  0  0  0
107108  1  0  0  0  0
107123  1  0  0  0  0
108109  1  0  0  0  0
108124  1  0  0  0  0
109110  1  0  0  0  0
109125  1  0  0  0  0
110111  1  0  0  0  0
110126  1  0  0  0  0
111127  1  0  0  0  0
128129  1  0  0  0  0
128141  1  0  0  0  0
128142  1  0  0  0  0
128143  1  0  0  0  0
129130  1  0  0  0  0
129140  2  0  0  0  0
129 94  1  0  0  0  0
130131  1  0  0  0  0
130139  1  0  0  0  0
131132  1  0  0  0  0
131136  1  0  0  0  0
132133  1  0  0  0  0
132144  1  0  0  0  0
133134  1  0  0  0  0
133145  1  0  0  0  0
134135  1  0  0  0  0
134146  1  0  0  0  0
135136  1  0  0  0  0
135147  1  0  0  0  0
136137  1  0  0  0  0
137138  1  0  0  0  0
137148  1  0  0  0  0
138139  1  0  0  0  0
138149  1  0  0  0  0
139150  1  0  0  0  0
140112  1  0  0  0  0
M  END
