 energy: -163.162023523394 gnorm: 0.000846311884 xtb: 6.7.1 (edcfbbe)
          07072520273D

110120  0     0  0            999 V2000
    1.6151   -2.3981   -3.0811 C   0  0  0  0  0  0  0  0  0  0  0  0
    1.3614   -1.2395   -2.1071 C   0  0  0  0  0  0  0  0  0  0  0  0
    1.4477    0.1120   -2.8210 C   0  0  0  0  0  0  0  0  0  0  0  0
    2.3039   -1.2655   -1.0449 O   0  0  0  0  0  0  0  0  0  0  0  0
    1.6366   -1.6636    0.1457 C   0  0  0  0  0  0  0  0  0  0  0  0
    2.3384   -1.0735    1.3745 C   0  0  0  0  0  0  0  0  0  0  0  0
    1.6890    0.5430    2.0907 P   0  0  0  0  0  4  0  0  0  0  0  0
    2.0196    1.7040    0.6974 C   0  0  0  0  0  3  0  0  0  0  0  0
    1.1213    2.7494    0.4968 C   0  0  0  0  0  3  0  0  0  0  0  0
    1.3365    3.6857   -0.4993 C   0  0  0  0  0  3  0  0  0  0  0  0
    2.4557    3.5869   -1.3116 C   0  0  0  0  0  3  0  0  0  0  0  0
    3.3518    2.5468   -1.1230 C   0  0  0  0  0  3  0  0  0  0  0  0
    3.1406    1.6097   -0.1236 C   0  0  0  0  0  3  0  0  0  0  0  0
    3.2448    0.8204    3.0640 C   0  0  0  0  0  3  0  0  0  0  0  0
    4.1479    1.8542    2.8266 C   0  0  0  0  0  3  0  0  0  0  0  0
    5.2917    1.9818    3.5978 C   0  0  0  0  0  3  0  0  0  0  0  0
    5.5565    1.0773    4.6136 C   0  0  0  0  0  3  0  0  0  0  0  0
    4.6625    0.0469    4.8596 C   0  0  0  0  0  3  0  0  0  0  0  0
    3.5122   -0.0729    4.0983 C   0  0  0  0  0  3  0  0  0  0  0  0
    0.1924   -1.1999   -0.1327 C   0  0  0  0  0  0  0  0  0  0  0  0
   -0.9047   -1.9584    0.6033 C   0  0  0  0  0  0  0  0  0  0  0  0
   -0.7581   -1.6859    2.4437 P   0  0  0  0  0  4  0  0  0  0  0  0
    0.2775   -3.1170    2.9883 C   0  0  0  0  0  3  0  0  0  0  0  0
    0.2771   -4.3715    2.3814 C   0  0  0  0  0  3  0  0  0  0  0  0
    1.0610   -5.3913    2.8945 C   0  0  0  0  0  3  0  0  0  0  0  0
    1.8388   -5.1808    4.0233 C   0  0  0  0  0  3  0  0  0  0  0  0
    1.8163   -3.9481    4.6545 C   0  0  0  0  0  3  0  0  0  0  0  0
    1.0331   -2.9273    4.1405 C   0  0  0  0  0  3  0  0  0  0  0  0
   -2.3238   -2.4503    3.0366 C   0  0  0  0  0  3  0  0  0  0  0  0
   -3.2804   -3.0855    2.2479 C   0  0  0  0  0  3  0  0  0  0  0  0
   -4.3961   -3.6578    2.8398 C   0  0  0  0  0  3  0  0  0  0  0  0
   -4.5690   -3.6080    4.2145 C   0  0  0  0  0  3  0  0  0  0  0  0
   -3.6199   -2.9783    5.0054 C   0  0  0  0  0  3  0  0  0  0  0  0
   -2.5052   -2.4058    4.4178 C   0  0  0  0  0  3  0  0  0  0  0  0
    0.0745   -1.4185   -1.5298 O   0  0  0  0  0  0  0  0  0  0  0  0
   -0.4600    0.5265    3.0230 Ru  0  0  0  0  0  0  0  0  0  0  0  0
    2.5805   -2.2639   -3.5644 H   0  0  0  0  0  0  0  0  0  0  0  0
    0.8249   -2.4186   -3.8284 H   0  0  0  0  0  0  0  0  0  0  0  0
    1.6141   -3.3398   -2.5359 H   0  0  0  0  0  0  0  0  0  0  0  0
    1.1620    0.9053   -2.1336 H   0  0  0  0  0  0  0  0  0  0  0  0
    0.7733    0.1158   -3.6746 H   0  0  0  0  0  0  0  0  0  0  0  0
    2.4692    0.2821   -3.1537 H   0  0  0  0  0  0  0  0  0  0  0  0
    1.6552   -2.7667    0.2143 H   0  0  0  0  0  0  0  0  0  0  0  0
    2.2792   -1.7922    2.1953 H   0  0  0  0  0  0  0  0  0  0  0  0
    3.3924   -0.9447    1.1181 H   0  0  0  0  0  0  0  0  0  0  0  0
    0.2418    2.7997    1.1253 H   0  0  0  0  0  0  0  0  0  0  0  0
    0.6312    4.4952   -0.6437 H   0  0  0  0  0  0  0  0  0  0  0  0
    2.6281    4.3173   -2.0922 H   0  0  0  0  0  0  0  0  0  0  0  0
    4.2253    2.4638   -1.7582 H   0  0  0  0  0  0  0  0  0  0  0  0
    3.8534    0.8078    0.0073 H   0  0  0  0  0  0  0  0  0  0  0  0
    3.9686    2.5697    2.0342 H   0  0  0  0  0  0  0  0  0  0  0  0
    5.9796    2.7949    3.4006 H   0  0  0  0  0  0  0  0  0  0  0  0
    6.4536    1.1772    5.2114 H   0  0  0  0  0  0  0  0  0  0  0  0
    4.8614   -0.6673    5.6490 H   0  0  0  0  0  0  0  0  0  0  0  0
    2.8060   -0.8656    4.3072 H   0  0  0  0  0  0  0  0  0  0  0  0
    0.1179   -0.1259    0.0962 H   0  0  0  0  0  0  0  0  0  0  0  0
   -1.8580   -1.5179    0.3026 H   0  0  0  0  0  0  0  0  0  0  0  0
   -0.8799   -3.0112    0.3179 H   0  0  0  0  0  0  0  0  0  0  0  0
   -0.3395   -4.5672    1.5133 H   0  0  0  0  0  0  0  0  0  0  0  0
    1.0622   -6.3608    2.4114 H   0  0  0  0  0  0  0  0  0  0  0  0
    2.4536   -5.9821    4.4138 H   0  0  0  0  0  0  0  0  0  0  0  0
    2.4045   -3.7782    5.5476 H   0  0  0  0  0  0  0  0  0  0  0  0
    0.9927   -1.9605    4.6249 H   0  0  0  0  0  0  0  0  0  0  0  0
   -3.1664   -3.1369    1.1730 H   0  0  0  0  0  0  0  0  0  0  0  0
   -5.1353   -4.1507    2.2206 H   0  0  0  0  0  0  0  0  0  0  0  0
   -5.4423   -4.0607    4.6670 H   0  0  0  0  0  0  0  0  0  0  0  0
   -3.7488   -2.9316    6.0793 H   0  0  0  0  0  0  0  0  0  0  0  0
   -1.7613   -1.9042    5.0245 H   0  0  0  0  0  0  0  0  0  0  0  0
   -0.0070    0.2792    4.6947 H   0  0  0  0  0  0  0  0  0  0  0  0
   -1.1090    0.8832    1.6118 H   0  0  0  0  0  0  0  0  0  0  0  0
   -4.2007    2.2576    4.5263 C   0  0  0  0  0  0  0  0  0  0  0  0
   -3.0401    1.9985    3.5685 C   0  0  0  0  0  0  0  0  0  0  0  0
   -2.4964    0.6448    3.7343 N   0  0  0  0  0  4  0  0  0  0  0  0
   -1.8898    2.9237    3.7771 C   0  0  0  0  0  0  0  0  0  0  0  0
   -0.6489    2.5399    3.5343 N   0  0  0  0  0  4  0  0  0  0  0  0
    0.1460    3.6365    3.8090 C   0  0  0  0  0  3  0  0  0  0  0  0
   -0.6731    4.7064    4.2282 C   0  0  0  0  0  3  0  0  0  0  0  0
   -0.1421    5.9410    4.5807 C   0  0  0  0  0  3  0  0  0  0  0  0
    1.2308    6.0857    4.5039 C   0  0  0  0  0  3  0  0  0  0  0  0
    2.0399    5.0220    4.0903 C   0  0  0  0  0  3  0  0  0  0  0  0
    1.5264    3.7881    3.7398 C   0  0  0  0  0  3  0  0  0  0  0  0
   -1.9607    4.2196    4.1941 N   0  0  0  0  0  0  0  0  0  0  0  0
    3.7493    5.2632    4.0208 Cl  0  0  0  0  0  0  0  0  0  0  0  0
   -4.6374    3.2435    4.3686 H   0  0  0  0  0  0  0  0  0  0  0  0
   -3.8544    2.1761    5.5562 H   0  0  0  0  0  0  0  0  0  0  0  0
   -4.9821    1.5154    4.3670 H   0  0  0  0  0  0  0  0  0  0  0  0
   -3.3760    2.0976    2.5259 H   0  0  0  0  0  0  0  0  0  0  0  0
   -2.4781    0.4295    4.7387 H   0  0  0  0  0  0  0  0  0  0  0  0
   -3.1136   -0.0373    3.3016 H   0  0  0  0  0  0  0  0  0  0  0  0
   -0.7730    6.7571    4.9053 H   0  0  0  0  0  0  0  0  0  0  0  0
    1.6929    7.0268    4.7691 H   0  0  0  0  0  0  0  0  0  0  0  0
    2.1531    2.9649    3.4364 H   0  0  0  0  0  0  0  0  0  0  0  0
   -2.7969    4.7196    4.4506 H   0  0  0  0  0  0  0  0  0  0  0  0
    0.1533    1.8800    6.5794 C   0  0  0  0  0  0  0  0  0  0  0  0
   -0.3984    0.4807    6.3604 C   0  0  0  0  0  0  0  0  0  0  0  0
    0.5082   -0.6259    6.8623 C   0  0  0  0  0  3  0  0  0  0  0  0
   -0.1008   -1.7897    7.3053 C   0  0  0  0  0  3  0  0  0  0  0  0
    0.6754   -2.8171    7.8686 C   0  0  0  0  0  3  0  0  0  0  0  0
    2.0029   -2.6572    7.9843 C   0  0  0  0  0  3  0  0  0  0  0  0
    2.6007   -1.5004    7.5450 C   0  0  0  0  0  3  0  0  0  0  0  0
    1.8457   -0.4943    6.9824 C   0  0  0  0  0  3  0  0  0  0  0  0
   -1.6426    0.3027    6.4571 O   0  0  0  0  0  0  0  0  0  0  0  0
    1.0446    2.0742    6.0111 H   0  0  0  0  0  0  0  0  0  0  0  0
    0.3745    1.9749    7.6277 H   0  0  0  0  0  0  0  0  0  0  0  0
   -0.5974    2.6065    6.3255 H   0  0  0  0  0  0  0  0  0  0  0  0
   -1.1666   -1.8856    7.2397 H   0  0  0  0  0  0  0  0  0  0  0  0
    0.1863   -3.7104    8.2058 H   0  0  0  0  0  0  0  0  0  0  0  0
    2.6069   -3.4273    8.4250 H   0  0  0  0  0  0  0  0  0  0  0  0
    3.6606   -1.3731    7.6504 H   0  0  0  0  0  0  0  0  0  0  0  0
    2.3446    0.3919    6.6413 H   0  0  0  0  0  0  0  0  0  0  0  0
  1  2  1  0  0  0  0
  1 37  1  0  0  0  0
  1 38  1  0  0  0  0
  1 39  1  0  0  0  0
  2  3  1  0  0  0  0
  2  4  1  0  0  0  0
  2 35  1  0  0  0  0
  3 40  1  0  0  0  0
  3 41  1  0  0  0  0
  3 42  1  0  0  0  0
  4  5  1  0  0  0  0
  5  6  1  0  0  0  0
  5 20  1  0  0  0  0
  5 43  1  0  0  0  0
  6  7  1  0  0  0  0
  6 44  1  0  0  0  0
  6 45  1  0  0  0  0
  7  8  1  0  0  0  0
  7 14  1  0  0  0  0
  7 36  1  0  0  0  0
  8  9  1  0  0  0  0
  8 13  1  0  0  0  0
  9 10  1  0  0  0  0
  9 46  1  0  0  0  0
 10 11  1  0  0  0  0
 10 47  1  0  0  0  0
 11 12  1  0  0  0  0
 11 48  1  0  0  0  0
 12 13  1  0  0  0  0
 12 49  1  0  0  0  0
 13 50  1  0  0  0  0
 14 15  1  0  0  0  0
 14 19  1  0  0  0  0
 15 16  1  0  0  0  0
 15 51  1  0  0  0  0
 16 17  1  0  0  0  0
 16 52  1  0  0  0  0
 17 18  1  0  0  0  0
 17 53  1  0  0  0  0
 18 19  1  0  0  0  0
 18 54  1  0  0  0  0
 19 55  1  0  0  0  0
 20 21  1  0  0  0  0
 20 35  1  0  0  0  0
 20 56  1  0  0  0  0
 21 22  1  0  0  0  0
 21 57  1  0  0  0  0
 21 58  1  0  0  0  0
 22 23  1  0  0  0  0
 22 29  1  0  0  0  0
 22 36  1  0  0  0  0
 23 24  1  0  0  0  0
 23 28  1  0  0  0  0
 24 25  1  0  0  0  0
 24 59  1  0  0  0  0
 25 26  1  0  0  0  0
 25 60  1  0  0  0  0
 26 27  1  0  0  0  0
 26 61  1  0  0  0  0
 27 28  1  0  0  0  0
 27 62  1  0  0  0  0
 28 63  1  0  0  0  0
 29 30  1  0  0  0  0
 29 34  1  0  0  0  0
 30 31  1  0  0  0  0
 30 64  1  0  0  0  0
 31 32  1  0  0  0  0
 31 65  1  0  0  0  0
 32 33  1  0  0  0  0
 32 66  1  0  0  0  0
 33 34  1  0  0  0  0
 33 67  1  0  0  0  0
 34 68  1  0  0  0  0
 36 75  1  0  0  0  0
 69 36  1  0  0  0  0
 70 36  1  0  0  0  0
 71 72  1  0  0  0  0
 71 84  1  0  0  0  0
 71 85  1  0  0  0  0
 71 86  1  0  0  0  0
 72 73  1  0  0  0  0
 72 74  1  0  0  0  0
 72 87  1  0  0  0  0
 73 88  1  0  0  0  0
 73 89  1  0  0  0  0
 73 36  1  0  0  0  0
 74 75  2  0  0  0  0
 74 82  1  0  0  0  0
 75 76  1  0  0  0  0
 76 77  1  0  0  0  0
 76 81  1  0  0  0  0
 77 78  1  0  0  0  0
 77 82  1  0  0  0  0
 78 79  1  0  0  0  0
 78 90  1  0  0  0  0
 79 80  1  0  0  0  0
 79 91  1  0  0  0  0
 80 81  1  0  0  0  0
 80 83  1  0  0  0  0
 81 92  1  0  0  0  0
 82 93  1  0  0  0  0
 94 95  1  0  0  0  0
 94103  1  0  0  0  0
 94104  1  0  0  0  0
 94105  1  0  0  0  0
 95 96  1  0  0  0  0
 95102  2  0  0  0  0
 95 69  1  0  0  0  0
 96 97  1  0  0  0  0
 96101  1  0  0  0  0
 97 98  1  0  0  0  0
 97106  1  0  0  0  0
 98 99  1  0  0  0  0
 98107  1  0  0  0  0
 99100  1  0  0  0  0
 99108  1  0  0  0  0
100101  1  0  0  0  0
100109  1  0  0  0  0
101110  1  0  0  0  0
102 88  1  0  0  0  0
M  END
