 energy: -155.930372183081 gnorm: 0.000760799572 xtb: 6.7.1 (edcfbbe)
          07072520293D

107117  0     0  0            999 V2000
    4.5518   -3.8300   -0.1917 C   0  0  0  0  0  0  0  0  0  0  0  0
    3.8545   -2.4648   -0.1278 C   0  0  0  0  0  0  0  0  0  0  0  0
    4.3559   -1.5426   -1.2422 C   0  0  0  0  0  0  0  0  0  0  0  0
    4.0899   -1.8352    1.1235 O   0  0  0  0  0  0  0  0  0  0  0  0
    2.9539   -2.0917    1.9368 C   0  0  0  0  0  0  0  0  0  0  0  0
    2.8554   -1.0775    3.0778 C   0  0  0  0  0  0  0  0  0  0  0  0
    1.9308    0.5177    2.7083 P   0  0  0  0  0  4  0  0  0  0  0  0
    3.0147    1.1400    1.3461 C   0  0  0  0  0  3  0  0  0  0  0  0
    2.4297    1.3949    0.1087 C   0  0  0  0  0  3  0  0  0  0  0  0
    3.1876    1.8843   -0.9426 C   0  0  0  0  0  3  0  0  0  0  0  0
    4.5413    2.1233   -0.7665 C   0  0  0  0  0  3  0  0  0  0  0  0
    5.1313    1.8731    0.4635 C   0  0  0  0  0  3  0  0  0  0  0  0
    4.3751    1.3885    1.5178 C   0  0  0  0  0  3  0  0  0  0  0  0
    2.6186    1.5526    4.0800 C   0  0  0  0  0  3  0  0  0  0  0  0
    3.7627    1.3088    4.8352 C   0  0  0  0  0  3  0  0  0  0  0  0
    4.1733    2.2047    5.8102 C   0  0  0  0  0  3  0  0  0  0  0  0
    3.4594    3.3672    6.0503 C   0  0  0  0  0  3  0  0  0  0  0  0
    2.3061    3.6138    5.3215 C   0  0  0  0  0  3  0  0  0  0  0  0
    1.8915    2.7074    4.3616 C   0  0  0  0  0  3  0  0  0  0  0  0
    1.8201   -2.0826    0.8929 C   0  0  0  0  0  0  0  0  0  0  0  0
    0.5583   -2.8391    1.2755 C   0  0  0  0  0  0  0  0  0  0  0  0
   -0.4322   -1.9153    2.5656 P   0  0  0  0  0  4  0  0  0  0  0  0
   -0.1897   -2.9172    4.1029 C   0  0  0  0  0  3  0  0  0  0  0  0
    0.8539   -3.8096    4.3418 C   0  0  0  0  0  3  0  0  0  0  0  0
    0.9312   -4.4926    5.5439 C   0  0  0  0  0  3  0  0  0  0  0  0
   -0.0408   -4.3133    6.5161 C   0  0  0  0  0  3  0  0  0  0  0  0
   -1.0781   -3.4234    6.2910 C   0  0  0  0  0  3  0  0  0  0  0  0
   -1.1346   -2.7114    5.1038 C   0  0  0  0  0  3  0  0  0  0  0  0
   -2.0413   -2.6276    2.0139 C   0  0  0  0  0  3  0  0  0  0  0  0
   -2.5682   -2.0942    0.8392 C   0  0  0  0  0  3  0  0  0  0  0  0
   -3.7542   -2.5710    0.3052 C   0  0  0  0  0  3  0  0  0  0  0  0
   -4.4328   -3.5999    0.9401 C   0  0  0  0  0  3  0  0  0  0  0  0
   -3.9090   -4.1499    2.0997 C   0  0  0  0  0  3  0  0  0  0  0  0
   -2.7227   -3.6737    2.6337 C   0  0  0  0  0  3  0  0  0  0  0  0
    2.4497   -2.6685   -0.2367 O   0  0  0  0  0  0  0  0  0  0  0  0
   -0.4030    0.3998    2.5965 Ru  0  0  0  0  0  0  0  0  0  0  0  0
    5.6297   -3.6925   -0.1374 H   0  0  0  0  0  0  0  0  0  0  0  0
    4.2878   -4.3238   -1.1245 H   0  0  0  0  0  0  0  0  0  0  0  0
    4.2281   -4.4535    0.6393 H   0  0  0  0  0  0  0  0  0  0  0  0
    3.7836   -0.6183   -1.2295 H   0  0  0  0  0  0  0  0  0  0  0  0
    4.2311   -2.0340   -2.2045 H   0  0  0  0  0  0  0  0  0  0  0  0
    5.4055   -1.3126   -1.0733 H   0  0  0  0  0  0  0  0  0  0  0  0
    3.0534   -3.1092    2.3583 H   0  0  0  0  0  0  0  0  0  0  0  0
    2.3456   -1.5337    3.9288 H   0  0  0  0  0  0  0  0  0  0  0  0
    3.8873   -0.8447    3.3474 H   0  0  0  0  0  0  0  0  0  0  0  0
    1.3674    1.2196   -0.0072 H   0  0  0  0  0  0  0  0  0  0  0  0
    2.7205    2.0806   -1.8999 H   0  0  0  0  0  0  0  0  0  0  0  0
    5.1373    2.5051   -1.5861 H   0  0  0  0  0  0  0  0  0  0  0  0
    6.1887    2.0611    0.6037 H   0  0  0  0  0  0  0  0  0  0  0  0
    4.8463    1.2148    2.4765 H   0  0  0  0  0  0  0  0  0  0  0  0
    4.3540    0.4127    4.7000 H   0  0  0  0  0  0  0  0  0  0  0  0
    5.0640    1.9893    6.3880 H   0  0  0  0  0  0  0  0  0  0  0  0
    3.7911    4.0663    6.8078 H   0  0  0  0  0  0  0  0  0  0  0  0
    1.7237    4.5080    5.5075 H   0  0  0  0  0  0  0  0  0  0  0  0
    0.9641    2.8722    3.8293 H   0  0  0  0  0  0  0  0  0  0  0  0
    1.5517   -1.0368    0.6771 H   0  0  0  0  0  0  0  0  0  0  0  0
   -0.0665   -2.8883    0.3812 H   0  0  0  0  0  0  0  0  0  0  0  0
    0.7771   -3.8587    1.5969 H   0  0  0  0  0  0  0  0  0  0  0  0
    1.6112   -3.9848    3.5884 H   0  0  0  0  0  0  0  0  0  0  0  0
    1.7508   -5.1790    5.7180 H   0  0  0  0  0  0  0  0  0  0  0  0
    0.0136   -4.8631    7.4474 H   0  0  0  0  0  0  0  0  0  0  0  0
   -1.8425   -3.2751    7.0434 H   0  0  0  0  0  0  0  0  0  0  0  0
   -1.9285   -1.9918    4.9498 H   0  0  0  0  0  0  0  0  0  0  0  0
   -2.0254   -1.2994    0.3426 H   0  0  0  0  0  0  0  0  0  0  0  0
   -4.1469   -2.1426   -0.6089 H   0  0  0  0  0  0  0  0  0  0  0  0
   -5.3609   -3.9768    0.5291 H   0  0  0  0  0  0  0  0  0  0  0  0
   -4.4264   -4.9635    2.5931 H   0  0  0  0  0  0  0  0  0  0  0  0
   -2.3286   -4.1257    3.5351 H   0  0  0  0  0  0  0  0  0  0  0  0
   -0.4626    0.5283    4.3394 H   0  0  0  0  0  0  0  0  0  0  0  0
   -0.5196    0.3539    1.0066 H   0  0  0  0  0  0  0  0  0  0  0  0
   -2.5431    0.3202    2.8290 N   0  0  0  0  0  4  0  0  0  0  0  0
   -3.1519    1.6428    2.9837 C   0  0  0  0  0  0  0  0  0  0  0  0
   -2.1828    2.6624    2.5037 C   0  0  0  0  0  0  0  0  0  0  0  0
   -0.8939    2.4168    2.3582 N   0  0  0  0  0  4  0  0  0  0  0  0
   -0.3446    3.5909    1.8676 C   0  0  0  0  0  3  0  0  0  0  0  0
    0.9604    3.9264    1.5201 C   0  0  0  0  0  3  0  0  0  0  0  0
    1.2029    5.2032    1.0519 C   0  0  0  0  0  3  0  0  0  0  0  0
    0.1828    6.1508    0.9306 C   0  0  0  0  0  3  0  0  0  0  0  0
   -1.1207    5.8454    1.2754 C   0  0  0  0  0  3  0  0  0  0  0  0
   -1.3637    4.5590    1.7398 C   0  0  0  0  0  3  0  0  0  0  0  0
   -2.5190    3.9362    2.1543 N   0  0  0  0  0  0  0  0  0  0  0  0
   -2.6697   -0.1695    3.7230 H   0  0  0  0  0  0  0  0  0  0  0  0
   -3.0151   -0.2204    2.1108 H   0  0  0  0  0  0  0  0  0  0  0  0
   -4.0978    1.7329    2.4336 H   0  0  0  0  0  0  0  0  0  0  0  0
   -3.3550    1.7977    4.0503 H   0  0  0  0  0  0  0  0  0  0  0  0
    1.7579    3.2062    1.6129 H   0  0  0  0  0  0  0  0  0  0  0  0
    2.2125    5.4769    0.7727 H   0  0  0  0  0  0  0  0  0  0  0  0
    0.4179    7.1408    0.5611 H   0  0  0  0  0  0  0  0  0  0  0  0
   -1.9189    6.5702    1.1876 H   0  0  0  0  0  0  0  0  0  0  0  0
   -3.4422    4.3387    2.1840 H   0  0  0  0  0  0  0  0  0  0  0  0
   -1.0219    2.1745    6.0531 C   0  0  0  0  0  0  0  0  0  0  0  0
   -1.3338    0.7063    5.8128 C   0  0  0  0  0  0  0  0  0  0  0  0
   -0.4785   -0.1690    6.7079 C   0  0  0  0  0  3  0  0  0  0  0  0
    0.8565   -0.4414    6.4598 C   0  0  0  0  0  3  0  0  0  0  0  0
    1.5886   -1.2060    7.3839 C   0  0  0  0  0  3  0  0  0  0  0  0
    0.9974   -1.6535    8.5027 C   0  0  0  0  0  3  0  0  0  0  0  0
   -0.3247   -1.3711    8.7478 C   0  0  0  0  0  3  0  0  0  0  0  0
   -1.0497   -0.6312    7.8391 C   0  0  0  0  0  3  0  0  0  0  0  0
   -2.5181    0.3551    5.5596 O   0  0  0  0  0  0  0  0  0  0  0  0
   -1.4712    2.4404    6.9934 H   0  0  0  0  0  0  0  0  0  0  0  0
   -1.4386    2.8005    5.2847 H   0  0  0  0  0  0  0  0  0  0  0  0
    0.0392    2.3329    6.1158 H   0  0  0  0  0  0  0  0  0  0  0  0
    1.3194   -0.0900    5.5595 H   0  0  0  0  0  0  0  0  0  0  0  0
    2.6188   -1.4185    7.1732 H   0  0  0  0  0  0  0  0  0  0  0  0
    1.5509   -2.2368    9.2135 H   0  0  0  0  0  0  0  0  0  0  0  0
   -0.7964   -1.7281    9.6428 H   0  0  0  0  0  0  0  0  0  0  0  0
   -2.0852   -0.4232    8.0289 H   0  0  0  0  0  0  0  0  0  0  0  0
  1  2  1  0  0  0  0
  1 37  1  0  0  0  0
  1 38  1  0  0  0  0
  1 39  1  0  0  0  0
  2  3  1  0  0  0  0
  2  4  1  0  0  0  0
  2 35  1  0  0  0  0
  3 40  1  0  0  0  0
  3 41  1  0  0  0  0
  3 42  1  0  0  0  0
  4  5  1  0  0  0  0
  5  6  1  0  0  0  0
  5 20  1  0  0  0  0
  5 43  1  0  0  0  0
  6  7  1  0  0  0  0
  6 44  1  0  0  0  0
  6 45  1  0  0  0  0
  7  8  1  0  0  0  0
  7 14  1  0  0  0  0
  7 36  1  0  0  0  0
  8  9  1  0  0  0  0
  8 13  1  0  0  0  0
  9 10  1  0  0  0  0
  9 46  1  0  0  0  0
 10 11  1  0  0  0  0
 10 47  1  0  0  0  0
 11 12  1  0  0  0  0
 11 48  1  0  0  0  0
 12 13  1  0  0  0  0
 12 49  1  0  0  0  0
 13 50  1  0  0  0  0
 14 15  1  0  0  0  0
 14 19  1  0  0  0  0
 15 16  1  0  0  0  0
 15 51  1  0  0  0  0
 16 17  1  0  0  0  0
 16 52  1  0  0  0  0
 17 18  1  0  0  0  0
 17 53  1  0  0  0  0
 18 19  1  0  0  0  0
 18 54  1  0  0  0  0
 19 55  1  0  0  0  0
 20 21  1  0  0  0  0
 20 35  1  0  0  0  0
 20 56  1  0  0  0  0
 21 22  1  0  0  0  0
 21 57  1  0  0  0  0
 21 58  1  0  0  0  0
 22 23  1  0  0  0  0
 22 29  1  0  0  0  0
 22 36  1  0  0  0  0
 23 24  1  0  0  0  0
 23 28  1  0  0  0  0
 24 25  1  0  0  0  0
 24 59  1  0  0  0  0
 25 26  1  0  0  0  0
 25 60  1  0  0  0  0
 26 27  1  0  0  0  0
 26 61  1  0  0  0  0
 27 28  1  0  0  0  0
 27 62  1  0  0  0  0
 28 63  1  0  0  0  0
 29 30  1  0  0  0  0
 29 34  1  0  0  0  0
 30 31  1  0  0  0  0
 30 64  1  0  0  0  0
 31 32  1  0  0  0  0
 31 65  1  0  0  0  0
 32 33  1  0  0  0  0
 32 66  1  0  0  0  0
 33 34  1  0  0  0  0
 33 67  1  0  0  0  0
 34 68  1  0  0  0  0
 36 74  1  0  0  0  0
 69 36  1  0  0  0  0
 70 36  1  0  0  0  0
 71 72  1  0  0  0  0
 71 82  1  0  0  0  0
 71 83  1  0  0  0  0
 71 36  1  0  0  0  0
 72 73  1  0  0  0  0
 72 84  1  0  0  0  0
 72 85  1  0  0  0  0
 73 74  2  0  0  0  0
 73 81  1  0  0  0  0
 74 75  1  0  0  0  0
 75 76  1  0  0  0  0
 75 80  1  0  0  0  0
 76 77  1  0  0  0  0
 76 86  1  0  0  0  0
 77 78  1  0  0  0  0
 77 87  1  0  0  0  0
 78 79  1  0  0  0  0
 78 88  1  0  0  0  0
 79 89  1  0  0  0  0
 80 79  1  0  0  0  0
 80 81  1  0  0  0  0
 81 90  1  0  0  0  0
 91 92  1  0  0  0  0
 91100  1  0  0  0  0
 91101  1  0  0  0  0
 91102  1  0  0  0  0
 92 93  1  0  0  0  0
 92 99  2  0  0  0  0
 92 69  1  0  0  0  0
 93 94  1  0  0  0  0
 93 98  1  0  0  0  0
 94 95  1  0  0  0  0
 94103  1  0  0  0  0
 95 96  1  0  0  0  0
 95104  1  0  0  0  0
 96 97  1  0  0  0  0
 96105  1  0  0  0  0
 97 98  1  0  0  0  0
 97106  1  0  0  0  0
 98107  1  0  0  0  0
 99 82  1  0  0  0  0
M  END
