 energy: -186.551680885976 gnorm: 0.000975614151 xtb: 6.7.1 (edcfbbe)
          07072520293D

128140  0     0  0            999 V2000
    2.0037    0.3038   -2.6882 C   0  0  0  0  0  0  0  0  0  0  0  0
    1.8854    1.2186   -1.4622 C   0  0  0  0  0  0  0  0  0  0  0  0
    2.2755    2.6589   -1.8071 C   0  0  0  0  0  0  0  0  0  0  0  0
    2.7231    0.7595   -0.4107 O   0  0  0  0  0  0  0  0  0  0  0  0
    1.9184    0.0264    0.5036 C   0  0  0  0  0  0  0  0  0  0  0  0
    2.5707    0.0325    1.8895 C   0  0  0  0  0  0  0  0  0  0  0  0
    1.8761    1.1428    3.2425 P   0  0  0  0  0  4  0  0  0  0  0  0
    2.2015    2.8207    2.5494 C   0  0  0  0  0  3  0  0  0  0  0  0
    1.3890    3.8631    2.9877 C   0  0  0  0  0  3  0  0  0  0  0  0
    1.5936    5.1579    2.5431 C   0  0  0  0  0  3  0  0  0  0  0  0
    2.6163    5.4275    1.6472 C   0  0  0  0  0  3  0  0  0  0  0  0
    3.4342    4.3976    1.2100 C   0  0  0  0  0  3  0  0  0  0  0  0
    3.2378    3.1017    1.6614 C   0  0  0  0  0  3  0  0  0  0  0  0
    3.4276    1.0275    4.2598 C   0  0  0  0  0  3  0  0  0  0  0  0
    4.0610    2.1694    4.7462 C   0  0  0  0  0  3  0  0  0  0  0  0
    5.1844    2.0708    5.5510 C   0  0  0  0  0  3  0  0  0  0  0  0
    5.6939    0.8275    5.8909 C   0  0  0  0  0  3  0  0  0  0  0  0
    5.0767   -0.3155    5.4074 C   0  0  0  0  0  3  0  0  0  0  0  0
    3.9563   -0.2151    4.5997 C   0  0  0  0  0  3  0  0  0  0  0  0
    0.5459    0.7125    0.3619 C   0  0  0  0  0  0  0  0  0  0  0  0
   -0.6459   -0.2053    0.5939 C   0  0  0  0  0  0  0  0  0  0  0  0
   -0.6489   -0.8469    2.3483 P   0  0  0  0  0  4  0  0  0  0  0  0
    0.2707   -2.4409    2.1632 C   0  0  0  0  0  3  0  0  0  0  0  0
    0.0226   -3.3534    1.1397 C   0  0  0  0  0  3  0  0  0  0  0  0
    0.7029   -4.5595    1.1081 C   0  0  0  0  0  3  0  0  0  0  0  0
    1.6191   -4.8751    2.1002 C   0  0  0  0  0  3  0  0  0  0  0  0
    1.8486   -3.9857    3.1377 C   0  0  0  0  0  3  0  0  0  0  0  0
    1.1724   -2.7768    3.1675 C   0  0  0  0  0  3  0  0  0  0  0  0
   -2.2940   -1.6743    2.4043 C   0  0  0  0  0  3  0  0  0  0  0  0
   -3.2291   -1.7188    1.3718 C   0  0  0  0  0  3  0  0  0  0  0  0
   -4.4187   -2.4103    1.5417 C   0  0  0  0  0  3  0  0  0  0  0  0
   -4.6897   -3.0646    2.7336 C   0  0  0  0  0  3  0  0  0  0  0  0
   -3.7651   -3.0231    3.7663 C   0  0  0  0  0  3  0  0  0  0  0  0
   -2.5764   -2.3335    3.5996 C   0  0  0  0  0  3  0  0  0  0  0  0
    0.5479    1.1696   -0.9826 O   0  0  0  0  0  0  0  0  0  0  0  0
   -0.3172    0.7612    3.9711 Ru  0  0  0  0  0  0  0  0  0  0  0  0
    3.0184    0.3443   -3.0783 H   0  0  0  0  0  0  0  0  0  0  0  0
    1.3007    0.6306   -3.4512 H   0  0  0  0  0  0  0  0  0  0  0  0
    1.7701   -0.7212   -2.4073 H   0  0  0  0  0  0  0  0  0  0  0  0
    2.1203    3.2909   -0.9354 H   0  0  0  0  0  0  0  0  0  0  0  0
    1.6568    3.0154   -2.6277 H   0  0  0  0  0  0  0  0  0  0  0  0
    3.3249    2.6901   -2.0918 H   0  0  0  0  0  0  0  0  0  0  0  0
    1.8323   -1.0167    0.1474 H   0  0  0  0  0  0  0  0  0  0  0  0
    2.5127   -0.9799    2.2953 H   0  0  0  0  0  0  0  0  0  0  0  0
    3.6271    0.2744    1.7521 H   0  0  0  0  0  0  0  0  0  0  0  0
    0.5825    3.6354    3.6718 H   0  0  0  0  0  0  0  0  0  0  0  0
    0.9538    5.9586    2.8940 H   0  0  0  0  0  0  0  0  0  0  0  0
    2.7755    6.4371    1.2891 H   0  0  0  0  0  0  0  0  0  0  0  0
    4.2346    4.6036    0.5099 H   0  0  0  0  0  0  0  0  0  0  0  0
    3.8883    2.3163    1.3027 H   0  0  0  0  0  0  0  0  0  0  0  0
    3.6755    3.1486    4.4928 H   0  0  0  0  0  0  0  0  0  0  0  0
    5.6630    2.9721    5.9141 H   0  0  0  0  0  0  0  0  0  0  0  0
    6.5685    0.7499    6.5245 H   0  0  0  0  0  0  0  0  0  0  0  0
    5.4711   -1.2925    5.6593 H   0  0  0  0  0  0  0  0  0  0  0  0
    3.4989   -1.1197    4.2224 H   0  0  0  0  0  0  0  0  0  0  0  0
    0.4934    1.5695    1.0512 H   0  0  0  0  0  0  0  0  0  0  0  0
   -1.5476    0.4002    0.4788 H   0  0  0  0  0  0  0  0  0  0  0  0
   -0.6412   -1.0095   -0.1437 H   0  0  0  0  0  0  0  0  0  0  0  0
   -0.7109   -3.1317    0.3746 H   0  0  0  0  0  0  0  0  0  0  0  0
    0.5109   -5.2634    0.3077 H   0  0  0  0  0  0  0  0  0  0  0  0
    2.1451   -5.8210    2.0687 H   0  0  0  0  0  0  0  0  0  0  0  0
    2.5502   -4.2359    3.9240 H   0  0  0  0  0  0  0  0  0  0  0  0
    1.3165   -2.0664    3.9711 H   0  0  0  0  0  0  0  0  0  0  0  0
   -3.0419   -1.2146    0.4327 H   0  0  0  0  0  0  0  0  0  0  0  0
   -5.1394   -2.4395    0.7333 H   0  0  0  0  0  0  0  0  0  0  0  0
   -5.6207   -3.6036    2.8559 H   0  0  0  0  0  0  0  0  0  0  0  0
   -3.9682   -3.5232    4.7050 H   0  0  0  0  0  0  0  0  0  0  0  0
   -1.8632   -2.2794    4.4128 H   0  0  0  0  0  0  0  0  0  0  0  0
   -0.0513   -0.2862    5.3468 H   0  0  0  0  0  0  0  0  0  0  0  0
   -0.8170    1.8101    2.8799 H   0  0  0  0  0  0  0  0  0  0  0  0
   -4.2071    1.8927    5.6314 C   0  0  0  0  0  0  0  0  0  0  0  0
   -2.8959    1.9604    4.8501 C   0  0  0  0  0  0  0  0  0  0  0  0
   -2.4026    0.6278    4.4864 N   0  0  0  0  0  4  0  0  0  0  0  0
   -1.7902    2.6093    5.6128 C   0  0  0  0  0  0  0  0  0  0  0  0
   -0.5362    2.2384    5.4348 N   0  0  0  0  0  4  0  0  0  0  0  0
    0.2149    2.9862    6.3238 C   0  0  0  0  0  3  0  0  0  0  0  0
   -0.6416    3.8757    7.0056 C   0  0  0  0  0  3  0  0  0  0  0  0
   -0.1612    4.7785    7.9455 C   0  0  0  0  0  3  0  0  0  0  0  0
    1.1951    4.7399    8.2109 C   0  0  0  0  0  3  0  0  0  0  0  0
    2.0399    3.8180    7.5859 C   0  0  0  0  0  3  0  0  0  0  0  0
    1.5678    2.9286    6.6406 C   0  0  0  0  0  3  0  0  0  0  0  0
   -1.9073    3.6062    6.5348 N   0  0  0  0  0  0  0  0  0  0  0  0
   -4.5977    2.8890    5.8380 H   0  0  0  0  0  0  0  0  0  0  0  0
   -4.0598    1.3650    6.5733 H   0  0  0  0  0  0  0  0  0  0  0  0
   -4.9541    1.3524    5.0510 H   0  0  0  0  0  0  0  0  0  0  0  0
   -3.0469    2.5198    3.9148 H   0  0  0  0  0  0  0  0  0  0  0  0
   -2.4857    0.0059    5.3001 H   0  0  0  0  0  0  0  0  0  0  0  0
   -2.9840    0.2292    3.7540 H   0  0  0  0  0  0  0  0  0  0  0  0
   -0.8198    5.4669    8.4573 H   0  0  0  0  0  0  0  0  0  0  0  0
    1.6089    5.4287    8.9361 H   0  0  0  0  0  0  0  0  0  0  0  0
    3.0877    3.7963    7.8567 H   0  0  0  0  0  0  0  0  0  0  0  0
    2.2006    2.1929    6.1689 H   0  0  0  0  0  0  0  0  0  0  0  0
   -2.7621    4.0436    6.8399 H   0  0  0  0  0  0  0  0  0  0  0  0
   -1.8356   -1.1671    6.6679 O   0  0  0  0  0  0  0  0  0  0  0  0
   -0.5975   -1.0411    6.7965 C   0  0  0  0  0  0  0  0  0  0  0  0
   -0.1120   -0.0317    7.7844 C   0  0  0  0  0  3  0  0  0  0  0  0
   -1.0293    0.8917    8.2778 C   0  0  0  0  0  3  0  0  0  0  0  0
   -0.7297    1.7493    9.3148 C   0  0  0  0  0  3  0  0  0  0  0  0
    0.5405    1.6903    9.8851 C   0  0  0  0  0  3  0  0  0  0  0  0
    0.9411    2.4669   10.9935 O   0  0  0  0  0  0  0  0  0  0  0  0
   -0.0797    2.9133   11.8737 C   0  0  0  0  0  0  0  0  0  0  0  0
   -0.6434    4.2747   11.5101 C   0  0  0  0  0  3  0  0  0  0  0  0
    0.2325    5.3394   11.3721 C   0  0  0  0  0  3  0  0  0  0  0  0
   -0.2726    6.6121   11.0526 C   0  0  0  0  0  3  0  0  0  0  0  0
   -1.5937    6.7855   10.8896 C   0  0  0  0  0  3  0  0  0  0  0  0
   -2.4569    5.7261   11.0349 C   0  0  0  0  0  3  0  0  0  0  0  0
   -1.9672    4.4758   11.3458 C   0  0  0  0  0  3  0  0  0  0  0  0
    1.4768    0.7981    9.3955 C   0  0  0  0  0  3  0  0  0  0  0  0
    1.1671   -0.0798    8.3605 C   0  0  0  0  0  3  0  0  0  0  0  0
    2.1765   -1.1278    7.9696 C   0  0  0  0  0  0  0  0  0  0  0  0
    1.7884   -1.8238    6.6682 C   0  0  0  0  0  0  0  0  0  0  0  0
    0.3150   -2.2447    6.6972 C   0  0  0  0  0  0  0  0  0  0  0  0
   -2.0154    0.8900    7.8563 H   0  0  0  0  0  0  0  0  0  0  0  0
   -1.4656    2.4399    9.6750 H   0  0  0  0  0  0  0  0  0  0  0  0
   -0.8686    2.1831   11.9355 H   0  0  0  0  0  0  0  0  0  0  0  0
    0.4052    2.9862   12.8322 H   0  0  0  0  0  0  0  0  0  0  0  0
    1.2845    5.1849   11.5089 H   0  0  0  0  0  0  0  0  0  0  0  0
    0.4127    7.4307   10.9480 H   0  0  0  0  0  0  0  0  0  0  0  0
   -1.9882    7.7540   10.6480 H   0  0  0  0  0  0  0  0  0  0  0  0
   -3.5128    5.8696   10.9106 H   0  0  0  0  0  0  0  0  0  0  0  0
   -2.6569    3.6625   11.4671 H   0  0  0  0  0  0  0  0  0  0  0  0
    2.4435    0.7633    9.8577 H   0  0  0  0  0  0  0  0  0  0  0  0
    2.2322   -1.8489    8.7674 H   0  0  0  0  0  0  0  0  0  0  0  0
    3.1471   -0.6728    7.8666 H   0  0  0  0  0  0  0  0  0  0  0  0
    2.4184   -2.6818    6.5058 H   0  0  0  0  0  0  0  0  0  0  0  0
    1.9246   -1.1244    5.8616 H   0  0  0  0  0  0  0  0  0  0  0  0
    0.1220   -2.8382    7.5747 H   0  0  0  0  0  0  0  0  0  0  0  0
    0.0629   -2.8352    5.8334 H   0  0  0  0  0  0  0  0  0  0  0  0
  1  2  1  0  0  0  0
  1 37  1  0  0  0  0
  1 38  1  0  0  0  0
  1 39  1  0  0  0  0
  2  3  1  0  0  0  0
  2  4  1  0  0  0  0
  2 35  1  0  0  0  0
  3 40  1  0  0  0  0
  3 41  1  0  0  0  0
  3 42  1  0  0  0  0
  4  5  1  0  0  0  0
  5  6  1  0  0  0  0
  5 20  1  0  0  0  0
  5 43  1  0  0  0  0
  6  7  1  0  0  0  0
  6 44  1  0  0  0  0
  6 45  1  0  0  0  0
  7  8  1  0  0  0  0
  7 14  1  0  0  0  0
  7 36  1  0  0  0  0
  8  9  1  0  0  0  0
  8 13  1  0  0  0  0
  9 10  1  0  0  0  0
  9 46  1  0  0  0  0
 10 11  1  0  0  0  0
 10 47  1  0  0  0  0
 11 12  1  0  0  0  0
 11 48  1  0  0  0  0
 12 13  1  0  0  0  0
 12 49  1  0  0  0  0
 13 50  1  0  0  0  0
 14 15  1  0  0  0  0
 14 19  1  0  0  0  0
 15 16  1  0  0  0  0
 15 51  1  0  0  0  0
 16 17  1  0  0  0  0
 16 52  1  0  0  0  0
 17 18  1  0  0  0  0
 17 53  1  0  0  0  0
 18 19  1  0  0  0  0
 18 54  1  0  0  0  0
 19 55  1  0  0  0  0
 20 21  1  0  0  0  0
 20 35  1  0  0  0  0
 20 56  1  0  0  0  0
 21 22  1  0  0  0  0
 21 57  1  0  0  0  0
 21 58  1  0  0  0  0
 22 23  1  0  0  0  0
 22 29  1  0  0  0  0
 22 36  1  0  0  0  0
 23 24  1  0  0  0  0
 23 28  1  0  0  0  0
 24 25  1  0  0  0  0
 24 59  1  0  0  0  0
 25 26  1  0  0  0  0
 25 60  1  0  0  0  0
 26 27  1  0  0  0  0
 26 61  1  0  0  0  0
 27 28  1  0  0  0  0
 27 62  1  0  0  0  0
 28 63  1  0  0  0  0
 29 30  1  0  0  0  0
 29 34  1  0  0  0  0
 30 31  1  0  0  0  0
 30 64  1  0  0  0  0
 31 32  1  0  0  0  0
 31 65  1  0  0  0  0
 32 33  1  0  0  0  0
 32 66  1  0  0  0  0
 33 34  1  0  0  0  0
 33 67  1  0  0  0  0
 34 68  1  0  0  0  0
 36 75  1  0  0  0  0
 69 36  1  0  0  0  0
 70 36  1  0  0  0  0
 71 72  1  0  0  0  0
 71 83  1  0  0  0  0
 71 84  1  0  0  0  0
 71 85  1  0  0  0  0
 72 73  1  0  0  0  0
 72 74  1  0  0  0  0
 72 86  1  0  0  0  0
 73 87  1  0  0  0  0
 73 88  1  0  0  0  0
 73 36  1  0  0  0  0
 74 75  2  0  0  0  0
 74 82  1  0  0  0  0
 75 76  1  0  0  0  0
 76 77  1  0  0  0  0
 76 81  1  0  0  0  0
 77 78  1  0  0  0  0
 77 82  1  0  0  0  0
 78 79  1  0  0  0  0
 78 89  1  0  0  0  0
 79 80  1  0  0  0  0
 79 90  1  0  0  0  0
 80 81  1  0  0  0  0
 80 91  1  0  0  0  0
 81 92  1  0  0  0  0
 82 93  1  0  0  0  0
 94 95  2  0  0  0  0
 94 87  1  0  0  0  0
 95 96  1  0  0  0  0
 95112  1  0  0  0  0
 95 69  1  0  0  0  0
 96 97  1  0  0  0  0
 96109  1  0  0  0  0
 97 98  1  0  0  0  0
 97113  1  0  0  0  0
 98 99  1  0  0  0  0
 98114  1  0  0  0  0
 99100  1  0  0  0  0
 99108  1  0  0  0  0
100101  1  0  0  0  0
101102  1  0  0  0  0
101115  1  0  0  0  0
101116  1  0  0  0  0
102103  1  0  0  0  0
102107  1  0  0  0  0
103104  1  0  0  0  0
103117  1  0  0  0  0
104105  1  0  0  0  0
104118  1  0  0  0  0
105106  1  0  0  0  0
105119  1  0  0  0  0
106107  1  0  0  0  0
106120  1  0  0  0  0
107121  1  0  0  0  0
108122  1  0  0  0  0
109108  1  0  0  0  0
109110  1  0  0  0  0
110111  1  0  0  0  0
110123  1  0  0  0  0
110124  1  0  0  0  0
111112  1  0  0  0  0
111125  1  0  0  0  0
111126  1  0  0  0  0
112127  1  0  0  0  0
112128  1  0  0  0  0
M  END
