 energy: -218.157321514291 gnorm: 0.000855974374 xtb: 6.7.1 (edcfbbe)
          07072520353D

152164  0     0  0            999 V2000
    4.5226   -0.5215    0.6412 C   0  0  0  0  0  0  0  0  0  0  0  0
    3.8013    0.3300    1.6905 C   0  0  0  0  0  0  0  0  0  0  0  0
    3.9785    1.8266    1.4044 C   0  0  0  0  0  0  0  0  0  0  0  0
    4.3013    0.0505    2.9923 O   0  0  0  0  0  0  0  0  0  0  0  0
    3.3303   -0.7229    3.6828 C   0  0  0  0  0  0  0  0  0  0  0  0
    3.4515   -0.5159    5.1989 C   0  0  0  0  0  0  0  0  0  0  0  0
    2.3398    0.7893    5.9911 P   0  0  0  0  0  4  0  0  0  0  0  0
    3.0024    2.2886    5.1224 C   0  0  0  0  0  3  0  0  0  0  0  0
    2.0889    3.2114    4.6204 C   0  0  0  0  0  3  0  0  0  0  0  0
    2.5219    4.3691    3.9948 C   0  0  0  0  0  3  0  0  0  0  0  0
    3.8793    4.6148    3.8605 C   0  0  0  0  0  3  0  0  0  0  0  0
    4.7959    3.6909    4.3383 C   0  0  0  0  0  3  0  0  0  0  0  0
    4.3650    2.5332    4.9645 C   0  0  0  0  0  3  0  0  0  0  0  0
    3.3823    0.8251    7.5254 C   0  0  0  0  0  3  0  0  0  0  0  0
    3.4526   -0.3541    8.2642 C   0  0  0  0  0  3  0  0  0  0  0  0
    4.2595   -0.4499    9.3850 C   0  0  0  0  0  3  0  0  0  0  0  0
    4.9910    0.6485    9.8084 C   0  0  0  0  0  3  0  0  0  0  0  0
    4.9086    1.8364    9.1005 C   0  0  0  0  0  3  0  0  0  0  0  0
    4.1173    1.9254    7.9656 C   0  0  0  0  0  3  0  0  0  0  0  0
    2.0217   -0.2460    3.0243 C   0  0  0  0  0  0  0  0  0  0  0  0
    0.8664   -1.2344    3.0678 C   0  0  0  0  0  0  0  0  0  0  0  0
    0.2508   -1.5129    4.8092 P   0  0  0  0  0  4  0  0  0  0  0  0
    1.2246   -2.9972    5.3162 C   0  0  0  0  0  3  0  0  0  0  0  0
    1.6706   -4.0113    4.4705 C   0  0  0  0  0  3  0  0  0  0  0  0
    2.4072   -5.0669    4.9815 C   0  0  0  0  0  3  0  0  0  0  0  0
    2.7031   -5.1288    6.3350 C   0  0  0  0  0  3  0  0  0  0  0  0
    2.2449   -4.1373    7.1869 C   0  0  0  0  0  3  0  0  0  0  0  0
    1.5050   -3.0835    6.6763 C   0  0  0  0  0  3  0  0  0  0  0  0
   -1.3127   -2.3353    4.2863 C   0  0  0  0  0  3  0  0  0  0  0  0
   -2.2550   -1.5571    3.6167 C   0  0  0  0  0  3  0  0  0  0  0  0
   -3.4672   -2.0953    3.2144 C   0  0  0  0  0  3  0  0  0  0  0  0
   -3.7525   -3.4270    3.4724 C   0  0  0  0  0  3  0  0  0  0  0  0
   -2.8196   -4.2120    4.1333 C   0  0  0  0  0  3  0  0  0  0  0  0
   -1.6125   -3.6720    4.5454 C   0  0  0  0  0  3  0  0  0  0  0  0
    2.4263   -0.0204    1.6836 O   0  0  0  0  0  0  0  0  0  0  0  0
    0.0261    0.4038    6.0651 Ru  0  0  0  0  0  0  0  0  0  0  0  0
    5.5729   -0.2411    0.6015 H   0  0  0  0  0  0  0  0  0  0  0  0
    4.0592   -0.3636   -0.3304 H   0  0  0  0  0  0  0  0  0  0  0  0
    4.4422   -1.5741    0.9054 H   0  0  0  0  0  0  0  0  0  0  0  0
    3.3626    2.4016    2.0927 H   0  0  0  0  0  0  0  0  0  0  0  0
    3.6729    2.0404    0.3825 H   0  0  0  0  0  0  0  0  0  0  0  0
    5.0214    2.1007    1.5470 H   0  0  0  0  0  0  0  0  0  0  0  0
    3.4866   -1.7911    3.4479 H   0  0  0  0  0  0  0  0  0  0  0  0
    3.2206   -1.4558    5.7035 H   0  0  0  0  0  0  0  0  0  0  0  0
    4.4922   -0.2611    5.4113 H   0  0  0  0  0  0  0  0  0  0  0  0
    1.0327    2.9956    4.7155 H   0  0  0  0  0  0  0  0  0  0  0  0
    1.7998    5.0796    3.6120 H   0  0  0  0  0  0  0  0  0  0  0  0
    4.2233    5.5199    3.3757 H   0  0  0  0  0  0  0  0  0  0  0  0
    5.8572    3.8734    4.2224 H   0  0  0  0  0  0  0  0  0  0  0  0
    5.0966    1.8242    5.3304 H   0  0  0  0  0  0  0  0  0  0  0  0
    2.8636   -1.2066    7.9551 H   0  0  0  0  0  0  0  0  0  0  0  0
    4.3010   -1.3771    9.9429 H   0  0  0  0  0  0  0  0  0  0  0  0
    5.6185    0.5802   10.6882 H   0  0  0  0  0  0  0  0  0  0  0  0
    5.4712    2.7031    9.4256 H   0  0  0  0  0  0  0  0  0  0  0  0
    4.0984    2.8577    7.4177 H   0  0  0  0  0  0  0  0  0  0  0  0
    1.7111    0.6993    3.4939 H   0  0  0  0  0  0  0  0  0  0  0  0
    0.0425   -0.7965    2.5004 H   0  0  0  0  0  0  0  0  0  0  0  0
    1.1560   -2.1716    2.5898 H   0  0  0  0  0  0  0  0  0  0  0  0
    1.4314   -3.9969    3.4144 H   0  0  0  0  0  0  0  0  0  0  0  0
    2.7507   -5.8497    4.3165 H   0  0  0  0  0  0  0  0  0  0  0  0
    3.2815   -5.9554    6.7279 H   0  0  0  0  0  0  0  0  0  0  0  0
    2.4519   -4.1884    8.2479 H   0  0  0  0  0  0  0  0  0  0  0  0
    1.1287   -2.3000    7.3224 H   0  0  0  0  0  0  0  0  0  0  0  0
   -2.0205   -0.5229    3.3956 H   0  0  0  0  0  0  0  0  0  0  0  0
   -4.1876   -1.4771    2.6930 H   0  0  0  0  0  0  0  0  0  0  0  0
   -4.6963   -3.8531    3.1565 H   0  0  0  0  0  0  0  0  0  0  0  0
   -3.0348   -5.2550    4.3302 H   0  0  0  0  0  0  0  0  0  0  0  0
   -0.8962   -4.2984    5.0620 H   0  0  0  0  0  0  0  0  0  0  0  0
    0.0461   -0.1727    7.7175 H   0  0  0  0  0  0  0  0  0  0  0  0
   -0.2325    1.0732    4.6411 H   0  0  0  0  0  0  0  0  0  0  0  0
   -4.1114    1.1957    7.1951 C   0  0  0  0  0  0  0  0  0  0  0  0
   -2.8915    1.4010    6.2665 C   0  0  0  0  0  0  0  0  0  0  0  0
   -2.1010    0.1648    6.2187 N   0  0  0  0  0  4  0  0  0  0  0  0
   -1.9398    2.4761    6.6753 C   0  0  0  0  0  0  0  0  0  0  0  0
   -0.6449    2.2496    6.8053 N   0  0  0  0  0  4  0  0  0  0  0  0
   -0.0811    3.4602    7.1730 C   0  0  0  0  0  3  0  0  0  0  0  0
   -1.0908    4.4440    7.2111 C   0  0  0  0  0  3  0  0  0  0  0  0
   -0.8178    5.7649    7.5446 C   0  0  0  0  0  3  0  0  0  0  0  0
    0.4929    6.0746    7.8561 C   0  0  0  0  0  3  0  0  0  0  0  0
    1.4952    5.1003    7.8536 C   0  0  0  0  0  3  0  0  0  0  0  0
    1.2262    3.7873    7.5201 C   0  0  0  0  0  3  0  0  0  0  0  0
   -2.2543    3.7868    6.8869 N   0  0  0  0  0  0  0  0  0  0  0  0
   -4.9511    2.4573    7.4017 C   0  0  0  0  0  0  0  0  0  0  0  0
   -4.9966    0.0909    6.6115 C   0  0  0  0  0  0  0  0  0  0  0  0
   -3.7271    0.8596    8.1666 H   0  0  0  0  0  0  0  0  0  0  0  0
   -3.2480    1.6320    5.2494 H   0  0  0  0  0  0  0  0  0  0  0  0
   -2.1987   -0.3030    7.1277 H   0  0  0  0  0  0  0  0  0  0  0  0
   -2.4863   -0.4712    5.5281 H   0  0  0  0  0  0  0  0  0  0  0  0
   -1.5984    6.5133    7.5652 H   0  0  0  0  0  0  0  0  0  0  0  0
    0.7482    7.0929    8.1207 H   0  0  0  0  0  0  0  0  0  0  0  0
    2.5041    5.3837    8.1255 H   0  0  0  0  0  0  0  0  0  0  0  0
    1.9830    3.0185    7.5346 H   0  0  0  0  0  0  0  0  0  0  0  0
   -3.1630    4.2069    6.7734 H   0  0  0  0  0  0  0  0  0  0  0  0
   -5.1785    2.9368    6.4481 H   0  0  0  0  0  0  0  0  0  0  0  0
   -4.4539    3.1665    8.0624 H   0  0  0  0  0  0  0  0  0  0  0  0
   -5.8965    2.1895    7.8725 H   0  0  0  0  0  0  0  0  0  0  0  0
   -5.8636   -0.0685    7.2521 H   0  0  0  0  0  0  0  0  0  0  0  0
   -4.4668   -0.8587    6.5385 H   0  0  0  0  0  0  0  0  0  0  0  0
   -5.3532    0.3674    5.6182 H   0  0  0  0  0  0  0  0  0  0  0  0
   -1.9168   -0.4562    9.0152 O   0  0  0  0  0  0  0  0  0  0  0  0
   -0.7325   -0.1299    9.2571 C   0  0  0  0  0  0  0  0  0  0  0  0
   -0.4174    1.2921    9.6453 C   0  0  0  0  0  0  0  0  0  0  0  0
    0.2082    1.4246   11.0371 C   0  0  0  0  0  0  0  0  0  0  0  0
   -0.7301    0.9123   12.1284 C   0  0  0  0  0  0  0  0  0  0  0  0
    0.5261    2.8931   11.2958 C   0  0  0  0  0  0  0  0  0  0  0  0
    1.5124    0.6198   11.0066 C   0  0  0  0  0  0  0  0  0  0  0  0
    1.2334   -0.8101   10.6527 C   0  0  0  0  0  3  0  0  0  0  0  0
    2.0255   -1.7189   11.2270 N   0  0  0  0  0  2  0  0  0  0  0  0
    1.7808   -3.0309   11.0586 C   0  0  0  0  0  3  0  0  0  0  0  0
    2.7746   -3.9435   11.7540 C   0  0  0  0  0  0  0  0  0  0  0  0
    2.0812   -4.8760   12.7376 C   0  0  0  0  0  0  0  0  0  0  0  0
    3.6079   -4.7323   10.7531 C   0  0  0  0  0  0  0  0  0  0  0  0
    0.6235   -3.4461   10.3736 C   0  0  0  0  0  3  0  0  0  0  0  0
    0.2276   -4.8982   10.2336 C   0  0  0  0  0  0  0  0  0  0  0  0
   -0.8791   -5.2052   11.0370 O   0  0  0  0  0  0  0  0  0  0  0  0
   -1.4577   -6.4864   10.8597 C   0  0  0  0  0  0  0  0  0  0  0  0
    0.7692   -5.7413    9.4995 O   0  0  0  0  0  0  0  0  0  0  0  0
   -0.2059   -2.5107    9.8199 C   0  0  0  0  0  3  0  0  0  0  0  0
   -1.5401   -2.9723    9.2779 C   0  0  0  0  0  0  0  0  0  0  0  0
   -1.6828   -3.5527    8.0951 C   0  0  0  0  0  0  0  0  0  0  0  0
   -3.0019   -4.0920    7.6188 C   0  0  0  0  0  0  0  0  0  0  0  0
   -3.9872   -4.1945    8.6711 O   0  0  0  0  0  0  0  0  0  0  0  0
   -3.9973   -3.0168    9.4747 C   0  0  0  0  0  0  0  0  0  0  0  0
   -2.6816   -2.8611   10.2365 C   0  0  0  0  0  0  0  0  0  0  0  0
    0.1369   -1.1535    9.8693 C   0  0  0  0  0  3  0  0  0  0  0  0
    0.2883    1.7205    8.9557 H   0  0  0  0  0  0  0  0  0  0  0  0
   -1.3337    1.8554    9.5940 H   0  0  0  0  0  0  0  0  0  0  0  0
   -0.9779   -0.1220   11.9717 H   0  0  0  0  0  0  0  0  0  0  0  0
   -0.2655    1.0070   13.0934 H   0  0  0  0  0  0  0  0  0  0  0  0
   -1.6421    1.4819   12.1293 H   0  0  0  0  0  0  0  0  0  0  0  0
    1.0048    3.0072   12.2518 H   0  0  0  0  0  0  0  0  0  0  0  0
    1.1815    3.2799   10.5364 H   0  0  0  0  0  0  0  0  0  0  0  0
   -0.3743    3.4807   11.2947 H   0  0  0  0  0  0  0  0  0  0  0  0
    2.1708    1.0484   10.2713 H   0  0  0  0  0  0  0  0  0  0  0  0
    2.0151    0.6390   11.9580 H   0  0  0  0  0  0  0  0  0  0  0  0
    3.4257   -3.2831   12.3035 H   0  0  0  0  0  0  0  0  0  0  0  0
    1.4991   -5.6158   12.2188 H   0  0  0  0  0  0  0  0  0  0  0  0
    2.8162   -5.3855   13.3347 H   0  0  0  0  0  0  0  0  0  0  0  0
    1.4310   -4.3215   13.3904 H   0  0  0  0  0  0  0  0  0  0  0  0
    4.1106   -4.0684   10.0729 H   0  0  0  0  0  0  0  0  0  0  0  0
    4.3505   -5.3085   11.2755 H   0  0  0  0  0  0  0  0  0  0  0  0
    2.9877   -5.4063   10.1904 H   0  0  0  0  0  0  0  0  0  0  0  0
   -2.3348   -6.3874   10.2445 H   0  0  0  0  0  0  0  0  0  0  0  0
   -0.7541   -7.1493   10.3879 H   0  0  0  0  0  0  0  0  0  0  0  0
   -1.7268   -6.8524   11.8345 H   0  0  0  0  0  0  0  0  0  0  0  0
   -0.8689   -3.6438    7.4037 H   0  0  0  0  0  0  0  0  0  0  0  0
   -2.8846   -5.0939    7.2432 H   0  0  0  0  0  0  0  0  0  0  0  0
   -3.3909   -3.4686    6.8307 H   0  0  0  0  0  0  0  0  0  0  0  0
   -4.1513   -2.1503    8.8537 H   0  0  0  0  0  0  0  0  0  0  0  0
   -4.8269   -3.1372   10.1499 H   0  0  0  0  0  0  0  0  0  0  0  0
   -2.6659   -1.9024   10.7254 H   0  0  0  0  0  0  0  0  0  0  0  0
   -2.5919   -3.6312   10.9834 H   0  0  0  0  0  0  0  0  0  0  0  0
  1  2  1  0  0  0  0
  1 37  1  0  0  0  0
  1 38  1  0  0  0  0
  1 39  1  0  0  0  0
  2  3  1  0  0  0  0
  2  4  1  0  0  0  0
  2 35  1  0  0  0  0
  3 40  1  0  0  0  0
  3 41  1  0  0  0  0
  3 42  1  0  0  0  0
  4  5  1  0  0  0  0
  5  6  1  0  0  0  0
  5 20  1  0  0  0  0
  5 43  1  0  0  0  0
  6  7  1  0  0  0  0
  6 44  1  0  0  0  0
  6 45  1  0  0  0  0
  7  8  1  0  0  0  0
  7 14  1  0  0  0  0
  7 36  1  0  0  0  0
  8  9  1  0  0  0  0
  8 13  1  0  0  0  0
  9 10  1  0  0  0  0
  9 46  1  0  0  0  0
 10 11  1  0  0  0  0
 10 47  1  0  0  0  0
 11 12  1  0  0  0  0
 11 48  1  0  0  0  0
 12 13  1  0  0  0  0
 12 49  1  0  0  0  0
 13 50  1  0  0  0  0
 14 15  1  0  0  0  0
 14 19  1  0  0  0  0
 15 16  1  0  0  0  0
 15 51  1  0  0  0  0
 16 17  1  0  0  0  0
 16 52  1  0  0  0  0
 17 18  1  0  0  0  0
 17 53  1  0  0  0  0
 18 19  1  0  0  0  0
 18 54  1  0  0  0  0
 19 55  1  0  0  0  0
 20 21  1  0  0  0  0
 20 35  1  0  0  0  0
 20 56  1  0  0  0  0
 21 22  1  0  0  0  0
 21 57  1  0  0  0  0
 21 58  1  0  0  0  0
 22 23  1  0  0  0  0
 22 29  1  0  0  0  0
 22 36  1  0  0  0  0
 23 24  1  0  0  0  0
 23 28  1  0  0  0  0
 24 25  1  0  0  0  0
 24 59  1  0  0  0  0
 25 26  1  0  0  0  0
 25 60  1  0  0  0  0
 26 27  1  0  0  0  0
 26 61  1  0  0  0  0
 27 28  1  0  0  0  0
 27 62  1  0  0  0  0
 28 63  1  0  0  0  0
 29 30  1  0  0  0  0
 29 34  1  0  0  0  0
 30 31  1  0  0  0  0
 30 64  1  0  0  0  0
 31 32  1  0  0  0  0
 31 65  1  0  0  0  0
 32 33  1  0  0  0  0
 32 66  1  0  0  0  0
 33 34  1  0  0  0  0
 33 67  1  0  0  0  0
 34 68  1  0  0  0  0
 36 75  1  0  0  0  0
 69 36  1  0  0  0  0
 70 36  1  0  0  0  0
 71 72  1  0  0  0  0
 71 83  1  0  0  0  0
 71 84  1  0  0  0  0
 71 85  1  0  0  0  0
 72 73  1  0  0  0  0
 72 74  1  0  0  0  0
 72 86  1  0  0  0  0
 73 87  1  0  0  0  0
 73 88  1  0  0  0  0
 73 36  1  0  0  0  0
 74 75  2  0  0  0  0
 74 82  1  0  0  0  0
 75 76  1  0  0  0  0
 76 77  1  0  0  0  0
 76 81  1  0  0  0  0
 77 78  1  0  0  0  0
 77 82  1  0  0  0  0
 78 79  1  0  0  0  0
 78 89  1  0  0  0  0
 79 80  1  0  0  0  0
 79 90  1  0  0  0  0
 80 81  1  0  0  0  0
 80 91  1  0  0  0  0
 81 92  1  0  0  0  0
 82 93  1  0  0  0  0
 83 94  1  0  0  0  0
 83 95  1  0  0  0  0
 83 96  1  0  0  0  0
 84 97  1  0  0  0  0
 84 98  1  0  0  0  0
 84 99  1  0  0  0  0
100101  2  0  0  0  0
100 87  1  0  0  0  0
101102  1  0  0  0  0
101 69  1  0  0  0  0
102103  1  0  0  0  0
102126  1  0  0  0  0
102127  1  0  0  0  0
103104  1  0  0  0  0
103105  1  0  0  0  0
103106  1  0  0  0  0
104128  1  0  0  0  0
104129  1  0  0  0  0
104130  1  0  0  0  0
105131  1  0  0  0  0
105132  1  0  0  0  0
105133  1  0  0  0  0
106107  1  0  0  0  0
106134  1  0  0  0  0
106135  1  0  0  0  0
107108  1  0  0  0  0
107125  1  0  0  0  0
108109  1  0  0  0  0
109110  1  0  0  0  0
109113  1  0  0  0  0
110111  1  0  0  0  0
110112  1  0  0  0  0
110136  1  0  0  0  0
111137  1  0  0  0  0
111138  1  0  0  0  0
111139  1  0  0  0  0
112140  1  0  0  0  0
112141  1  0  0  0  0
112142  1  0  0  0  0
113114  1  0  0  0  0
113118  1  0  0  0  0
114115  1  0  0  0  0
114117  2  0  0  0  0
115116  1  0  0  0  0
116143  1  0  0  0  0
116144  1  0  0  0  0
116145  1  0  0  0  0
118119  1  0  0  0  0
118125  1  0  0  0  0
119120  2  0  0  0  0
119124  1  0  0  0  0
120121  1  0  0  0  0
120146  1  0  0  0  0
121122  1  0  0  0  0
121147  1  0  0  0  0
121148  1  0  0  0  0
122123  1  0  0  0  0
123124  1  0  0  0  0
123149  1  0  0  0  0
123150  1  0  0  0  0
124151  1  0  0  0  0
124152  1  0  0  0  0
125101  1  0  0  0  0
M  END
