 energy: -225.043561362318 gnorm: 0.001005609058 xtb: 6.7.1 (edcfbbe)
          07072520403D

155166  0     0  0            999 V2000
    5.6411   -2.1071    6.0090 C   0  0  0  0  0  0  0  0  0  0  0  0
    5.0228   -1.0118    5.3604 O   0  0  0  0  0  0  0  0  0  0  0  0
    4.2445   -1.3142    4.2934 C   0  0  0  0  0  3  0  0  0  0  0  0
    3.5935   -0.2765    3.6368 C   0  0  0  0  0  3  0  0  0  0  0  0
    2.7992   -0.5808    2.5407 C   0  0  0  0  0  3  0  0  0  0  0  0
    1.7709    0.6639    1.6540 P   0  0  0  0  0  4  0  0  0  0  0  0
    2.5149    0.4038   -0.0113 C   0  0  0  0  0  3  0  0  0  0  0  0
    1.7108    0.3264   -1.1394 C   0  0  0  0  0  3  0  0  0  0  0  0
    2.2739    0.1296   -2.3953 C   0  0  0  0  0  3  0  0  0  0  0  0
    3.6555    0.0304   -2.5006 C   0  0  0  0  0  3  0  0  0  0  0  0
    4.4794    0.1251   -1.3832 C   0  0  0  0  0  3  0  0  0  0  0  0
    3.8989    0.3049   -0.1355 C   0  0  0  0  0  3  0  0  0  0  0  0
    2.5540    2.2708    2.0953 C   0  0  0  0  0  3  0  0  0  0  0  0
    2.3870    2.7248    3.4030 C   0  0  0  0  0  3  0  0  0  0  0  0
    2.8148    3.9881    3.7868 C   0  0  0  0  0  3  0  0  0  0  0  0
    3.4086    4.8082    2.8326 C   0  0  0  0  0  3  0  0  0  0  0  0
    3.5666    4.3868    1.5181 C   0  0  0  0  0  3  0  0  0  0  0  0
    3.1278    3.1187    1.1547 C   0  0  0  0  0  3  0  0  0  0  0  0
    2.6728   -1.9122    2.1307 C   0  0  0  0  0  3  0  0  0  0  0  0
    2.0224   -2.3090    0.8567 C   0  0  0  0  0  3  0  0  0  0  0  0
    2.8932   -2.7781   -0.1423 C   0  0  0  0  0  3  0  0  0  0  0  0
    4.2169   -2.8304    0.1335 O   0  0  0  0  0  0  0  0  0  0  0  0
    5.0372   -3.3400   -0.8998 C   0  0  0  0  0  0  0  0  0  0  0  0
    2.5060   -3.1484   -1.3580 N   0  0  0  0  0  2  0  0  0  0  0  0
    1.2102   -3.0680   -1.6445 C   0  0  0  0  0  3  0  0  0  0  0  0
    0.8046   -3.4112   -2.8911 O   0  0  0  0  0  0  0  0  0  0  0  0
    1.8286   -3.8103   -3.7832 C   0  0  0  0  0  0  0  0  0  0  0  0
    0.2560   -2.6466   -0.7261 C   0  0  0  0  0  3  0  0  0  0  0  0
    0.6584   -2.2686    0.5473 C   0  0  0  0  0  3  0  0  0  0  0  0
   -0.6092   -1.5982    1.7053 P   0  0  0  0  0  4  0  0  0  0  0  0
   -2.1608   -2.1210    0.8590 C   0  0  0  0  0  3  0  0  0  0  0  0
   -2.6995   -3.3968    0.9928 C   0  0  0  0  0  3  0  0  0  0  0  0
   -3.8942   -3.7317    0.3674 C   0  0  0  0  0  3  0  0  0  0  0  0
   -4.5510   -2.7757   -0.3989 C   0  0  0  0  0  3  0  0  0  0  0  0
   -4.0227   -1.5014   -0.5655 C   0  0  0  0  0  3  0  0  0  0  0  0
   -2.8260   -1.1882    0.0664 C   0  0  0  0  0  3  0  0  0  0  0  0
   -0.6562   -2.8812    3.0260 C   0  0  0  0  0  3  0  0  0  0  0  0
    0.1494   -4.0150    3.0869 C   0  0  0  0  0  3  0  0  0  0  0  0
   -0.0348   -4.9410    4.1050 C   0  0  0  0  0  3  0  0  0  0  0  0
   -1.0345   -4.7301    5.0495 C   0  0  0  0  0  3  0  0  0  0  0  0
   -1.8570   -3.6119    4.9950 C   0  0  0  0  0  3  0  0  0  0  0  0
   -1.6509   -2.6910    3.9750 C   0  0  0  0  0  3  0  0  0  0  0  0
    3.3999   -2.8720    2.8549 C   0  0  0  0  0  3  0  0  0  0  0  0
    3.3375   -4.1652    2.4611 O   0  0  0  0  0  0  0  0  0  0  0  0
    4.1809   -5.0613    3.1584 C   0  0  0  0  0  0  0  0  0  0  0  0
    4.1482   -2.5861    3.9157 N   0  0  0  0  0  2  0  0  0  0  0  0
    5.9759    0.0656   -1.5158 C   0  0  0  0  0  0  0  0  0  0  0  0
    1.3901    0.0266   -3.6063 C   0  0  0  0  0  0  0  0  0  0  0  0
    4.2176    5.2865    0.5051 C   0  0  0  0  0  0  0  0  0  0  0  0
    2.6271    4.4831    5.1938 C   0  0  0  0  0  0  0  0  0  0  0  0
    0.8271   -6.1697    4.1911 C   0  0  0  0  0  0  0  0  0  0  0  0
   -2.9537   -3.4065    6.0013 C   0  0  0  0  0  0  0  0  0  0  0  0
   -0.4766    0.6581    2.1548 Ru  0  0  0  0  0  0  0  0  0  0  0  0
   -4.4841   -5.1041    0.5358 C   0  0  0  0  0  0  0  0  0  0  0  0
   -4.7481   -0.4792   -1.3958 C   0  0  0  0  0  0  0  0  0  0  0  0
    6.2347   -1.6794    6.8175 H   0  0  0  0  0  0  0  0  0  0  0  0
    6.2834   -2.6584    5.3148 H   0  0  0  0  0  0  0  0  0  0  0  0
    4.8889   -2.7918    6.4142 H   0  0  0  0  0  0  0  0  0  0  0  0
    3.7448    0.7364    3.9777 H   0  0  0  0  0  0  0  0  0  0  0  0
    0.6386    0.4076   -1.0171 H   0  0  0  0  0  0  0  0  0  0  0  0
    4.1048   -0.1201   -3.4753 H   0  0  0  0  0  0  0  0  0  0  0  0
    4.5230    0.3695    0.7480 H   0  0  0  0  0  0  0  0  0  0  0  0
    1.9023    2.0711    4.1176 H   0  0  0  0  0  0  0  0  0  0  0  0
    3.7447    5.7974    3.1196 H   0  0  0  0  0  0  0  0  0  0  0  0
    3.2338    2.7921    0.1283 H   0  0  0  0  0  0  0  0  0  0  0  0
    6.0589   -3.2935   -0.5218 H   0  0  0  0  0  0  0  0  0  0  0  0
    4.9340   -2.7348   -1.8063 H   0  0  0  0  0  0  0  0  0  0  0  0
    4.7660   -4.3745   -1.1337 H   0  0  0  0  0  0  0  0  0  0  0  0
    1.3353   -4.0113   -4.7347 H   0  0  0  0  0  0  0  0  0  0  0  0
    2.3319   -4.7115   -3.4181 H   0  0  0  0  0  0  0  0  0  0  0  0
    2.5721   -3.0146   -3.8967 H   0  0  0  0  0  0  0  0  0  0  0  0
   -0.7799   -2.6165   -1.0277 H   0  0  0  0  0  0  0  0  0  0  0  0
   -2.1857   -4.1417    1.5864 H   0  0  0  0  0  0  0  0  0  0  0  0
   -5.4866   -3.0316   -0.8817 H   0  0  0  0  0  0  0  0  0  0  0  0
   -2.3700   -0.2158   -0.0698 H   0  0  0  0  0  0  0  0  0  0  0  0
    0.9142   -4.1817    2.3385 H   0  0  0  0  0  0  0  0  0  0  0  0
   -1.1753   -5.4546    5.8428 H   0  0  0  0  0  0  0  0  0  0  0  0
   -2.2710   -1.8050    3.9220 H   0  0  0  0  0  0  0  0  0  0  0  0
    4.0486   -6.0332    2.6818 H   0  0  0  0  0  0  0  0  0  0  0  0
    3.9036   -5.1159    4.2163 H   0  0  0  0  0  0  0  0  0  0  0  0
    5.2256   -4.7431    3.0845 H   0  0  0  0  0  0  0  0  0  0  0  0
    6.2714   -0.4189   -2.4461 H   0  0  0  0  0  0  0  0  0  0  0  0
    6.4121   -0.4760   -0.6765 H   0  0  0  0  0  0  0  0  0  0  0  0
    6.3888    1.0767   -1.5137 H   0  0  0  0  0  0  0  0  0  0  0  0
    0.7376    0.8986   -3.6721 H   0  0  0  0  0  0  0  0  0  0  0  0
    0.7545   -0.8571   -3.5316 H   0  0  0  0  0  0  0  0  0  0  0  0
    1.9801   -0.0402   -4.5202 H   0  0  0  0  0  0  0  0  0  0  0  0
    5.3039    5.2108    0.5858 H   0  0  0  0  0  0  0  0  0  0  0  0
    3.9398    6.3270    0.6736 H   0  0  0  0  0  0  0  0  0  0  0  0
    3.9314    5.0001   -0.5068 H   0  0  0  0  0  0  0  0  0  0  0  0
    2.1958    3.7080    5.8294 H   0  0  0  0  0  0  0  0  0  0  0  0
    3.5835    4.7867    5.6205 H   0  0  0  0  0  0  0  0  0  0  0  0
    1.9685    5.3519    5.2049 H   0  0  0  0  0  0  0  0  0  0  0  0
    1.4520   -6.1292    5.0834 H   0  0  0  0  0  0  0  0  0  0  0  0
    1.4706   -6.2493    3.3149 H   0  0  0  0  0  0  0  0  0  0  0  0
    0.2091   -7.0672    4.2588 H   0  0  0  0  0  0  0  0  0  0  0  0
   -3.8208   -4.0139    5.7411 H   0  0  0  0  0  0  0  0  0  0  0  0
   -3.2557   -2.3582    6.0190 H   0  0  0  0  0  0  0  0  0  0  0  0
   -2.6178   -3.6958    6.9978 H   0  0  0  0  0  0  0  0  0  0  0  0
   -4.9389   -5.4476   -0.3932 H   0  0  0  0  0  0  0  0  0  0  0  0
   -5.2600   -5.0831    1.3040 H   0  0  0  0  0  0  0  0  0  0  0  0
   -3.7201   -5.8177    0.8438 H   0  0  0  0  0  0  0  0  0  0  0  0
   -5.5869   -0.0682   -0.8341 H   0  0  0  0  0  0  0  0  0  0  0  0
   -5.1442   -0.9320   -2.3056 H   0  0  0  0  0  0  0  0  0  0  0  0
   -4.0808    0.3384   -1.6733 H   0  0  0  0  0  0  0  0  0  0  0  0
   -2.5372    0.8905    2.6450 N   0  0  0  0  0  4  0  0  0  0  0  0
   -2.8938    2.2686    3.0037 C   0  0  0  0  0  0  0  0  0  0  0  0
   -4.3239    2.6148    2.6649 C   0  0  0  0  0  3  0  0  0  0  0  0
   -5.1452    3.2218    3.6085 C   0  0  0  0  0  3  0  0  0  0  0  0
   -6.4457    3.5737    3.2856 C   0  0  0  0  0  3  0  0  0  0  0  0
   -6.9392    3.3226    2.0154 C   0  0  0  0  0  3  0  0  0  0  0  0
   -6.1266    2.7193    1.0684 C   0  0  0  0  0  3  0  0  0  0  0  0
   -4.8258    2.3699    1.3901 C   0  0  0  0  0  3  0  0  0  0  0  0
   -1.9327    3.2359    2.2838 C   0  0  0  0  0  0  0  0  0  0  0  0
   -0.5668    2.7585    2.5357 N   0  0  0  0  0  4  0  0  0  0  0  0
   -2.1935    4.6552    2.7295 C   0  0  0  0  0  3  0  0  0  0  0  0
   -1.6410    5.1747    3.8967 C   0  0  0  0  0  3  0  0  0  0  0  0
   -1.9458    6.4610    4.3101 C   0  0  0  0  0  3  0  0  0  0  0  0
   -2.8148    7.2450    3.5678 C   0  0  0  0  0  3  0  0  0  0  0  0
   -3.3720    6.7367    2.4054 C   0  0  0  0  0  3  0  0  0  0  0  0
   -3.0602    5.4525    1.9894 C   0  0  0  0  0  3  0  0  0  0  0  0
   -2.7170    0.3140    3.4760 H   0  0  0  0  0  0  0  0  0  0  0  0
   -3.1487    0.5458    1.9104 H   0  0  0  0  0  0  0  0  0  0  0  0
   -2.7438    2.3750    4.0858 H   0  0  0  0  0  0  0  0  0  0  0  0
   -4.7618    3.4179    4.6024 H   0  0  0  0  0  0  0  0  0  0  0  0
   -7.0759    4.0449    4.0293 H   0  0  0  0  0  0  0  0  0  0  0  0
   -7.9556    3.5971    1.7626 H   0  0  0  0  0  0  0  0  0  0  0  0
   -6.5058    2.5254    0.0728 H   0  0  0  0  0  0  0  0  0  0  0  0
   -4.1972    1.9118    0.6359 H   0  0  0  0  0  0  0  0  0  0  0  0
   -2.1075    3.1555    1.2032 H   0  0  0  0  0  0  0  0  0  0  0  0
    0.0901    3.2858    1.9672 H   0  0  0  0  0  0  0  0  0  0  0  0
   -0.3225    2.9190    3.5089 H   0  0  0  0  0  0  0  0  0  0  0  0
   -0.9662    4.5823    4.5028 H   0  0  0  0  0  0  0  0  0  0  0  0
   -1.5069    6.8502    5.2203 H   0  0  0  0  0  0  0  0  0  0  0  0
   -3.0564    8.2480    3.8956 H   0  0  0  0  0  0  0  0  0  0  0  0
   -4.0525    7.3411    1.8189 H   0  0  0  0  0  0  0  0  0  0  0  0
   -3.5003    5.0595    1.0811 H   0  0  0  0  0  0  0  0  0  0  0  0
   -0.3019    0.4215    3.8693 H   0  0  0  0  0  0  0  0  0  0  0  0
   -0.8032    1.0387    0.6832 H   0  0  0  0  0  0  0  0  0  0  0  0
   -0.3377    1.6111    6.0261 C   0  0  0  0  0  0  0  0  0  0  0  0
   -0.9619    0.3459    5.4580 C   0  0  0  0  0  0  0  0  0  0  0  0
   -0.2322   -0.8726    5.9869 C   0  0  0  0  0  3  0  0  0  0  0  0
    0.8571   -1.5019    5.3913 C   0  0  0  0  0  3  0  0  0  0  0  0
    1.4292   -2.5952    6.0220 C   0  0  0  0  0  3  0  0  0  0  0  0
    0.8996   -3.0194    7.2201 C   0  0  0  0  0  3  0  0  0  0  0  0
   -0.1362   -2.4274    7.8104 N   0  0  0  0  0  2  0  0  0  0  0  0
   -0.6814   -1.3765    7.1934 C   0  0  0  0  0  3  0  0  0  0  0  0
   -2.2136    0.2775    5.3248 O   0  0  0  0  0  0  0  0  0  0  0  0
    0.7258    1.6241    5.8715 H   0  0  0  0  0  0  0  0  0  0  0  0
   -0.5275    1.6043    7.0847 H   0  0  0  0  0  0  0  0  0  0  0  0
   -0.7921    2.4939    5.6137 H   0  0  0  0  0  0  0  0  0  0  0  0
    1.2216   -1.1535    4.4457 H   0  0  0  0  0  0  0  0  0  0  0  0
    2.2615   -3.1029    5.5760 H   0  0  0  0  0  0  0  0  0  0  0  0
    1.3013   -3.8640    7.7462 H   0  0  0  0  0  0  0  0  0  0  0  0
   -1.5186   -0.9327    7.6962 H   0  0  0  0  0  0  0  0  0  0  0  0
  1  2  1  0  0  0  0
  1 56  1  0  0  0  0
  1 57  1  0  0  0  0
  1 58  1  0  0  0  0
  3  2  1  0  0  0  0
  3  4  1  0  0  0  0
  3 46  1  0  0  0  0
  4 59  1  0  0  0  0
  5  4  1  0  0  0  0
  5  6  1  0  0  0  0
  5 19  1  0  0  0  0
  6  7  1  0  0  0  0
  6 13  1  0  0  0  0
  6 53  1  0  0  0  0
  7  8  1  0  0  0  0
  7 12  1  0  0  0  0
  8  9  1  0  0  0  0
  8 60  1  0  0  0  0
  9 10  1  0  0  0  0
  9 48  1  0  0  0  0
 10 11  1  0  0  0  0
 10 61  1  0  0  0  0
 11 12  1  0  0  0  0
 11 47  1  0  0  0  0
 12 62  1  0  0  0  0
 13 14  1  0  0  0  0
 13 18  1  0  0  0  0
 14 15  1  0  0  0  0
 14 63  1  0  0  0  0
 15 16  1  0  0  0  0
 15 50  1  0  0  0  0
 16 17  1  0  0  0  0
 16 64  1  0  0  0  0
 17 18  1  0  0  0  0
 17 49  1  0  0  0  0
 18 65  1  0  0  0  0
 19 20  1  0  0  0  0
 19 43  1  0  0  0  0
 20 21  1  0  0  0  0
 20 29  1  0  0  0  0
 21 22  1  0  0  0  0
 21 24  1  0  0  0  0
 22 23  1  0  0  0  0
 23 66  1  0  0  0  0
 23 67  1  0  0  0  0
 23 68  1  0  0  0  0
 24 25  1  0  0  0  0
 25 26  1  0  0  0  0
 25 28  1  0  0  0  0
 26 27  1  0  0  0  0
 27 69  1  0  0  0  0
 27 70  1  0  0  0  0
 27 71  1  0  0  0  0
 28 29  1  0  0  0  0
 28 72  1  0  0  0  0
 29 30  1  0  0  0  0
 30 31  1  0  0  0  0
 30 37  1  0  0  0  0
 31 32  1  0  0  0  0
 31 36  1  0  0  0  0
 32 33  1  0  0  0  0
 32 73  1  0  0  0  0
 33 34  1  0  0  0  0
 33 54  1  0  0  0  0
 34 35  1  0  0  0  0
 34 74  1  0  0  0  0
 35 36  1  0  0  0  0
 35 55  1  0  0  0  0
 36 75  1  0  0  0  0
 37 38  1  0  0  0  0
 37 42  1  0  0  0  0
 38 39  1  0  0  0  0
 38 76  1  0  0  0  0
 39 40  1  0  0  0  0
 39 51  1  0  0  0  0
 40 41  1  0  0  0  0
 40 77  1  0  0  0  0
 41 42  1  0  0  0  0
 41 52  1  0  0  0  0
 42 78  1  0  0  0  0
 43 44  1  0  0  0  0
 43 46  1  0  0  0  0
 44 45  1  0  0  0  0
 45 79  1  0  0  0  0
 45 80  1  0  0  0  0
 45 81  1  0  0  0  0
 47 82  1  0  0  0  0
 47 83  1  0  0  0  0
 47 84  1  0  0  0  0
 48 85  1  0  0  0  0
 48 86  1  0  0  0  0
 48 87  1  0  0  0  0
 49 88  1  0  0  0  0
 49 89  1  0  0  0  0
 49 90  1  0  0  0  0
 50 91  1  0  0  0  0
 50 92  1  0  0  0  0
 50 93  1  0  0  0  0
 51 94  1  0  0  0  0
 51 95  1  0  0  0  0
 51 96  1  0  0  0  0
 52 97  1  0  0  0  0
 52 98  1  0  0  0  0
 52 99  1  0  0  0  0
 53 30  1  0  0  0  0
 53106  1  0  0  0  0
 54100  1  0  0  0  0
 54101  1  0  0  0  0
 54102  1  0  0  0  0
 55103  1  0  0  0  0
 55104  1  0  0  0  0
 55105  1  0  0  0  0
106107  1  0  0  0  0
106122  1  0  0  0  0
106123  1  0  0  0  0
107108  1  0  0  0  0
107114  1  0  0  0  0
107124  1  0  0  0  0
108109  1  0  0  0  0
108113  1  0  0  0  0
109110  1  0  0  0  0
109125  1  0  0  0  0
110111  1  0  0  0  0
110126  1  0  0  0  0
111112  1  0  0  0  0
111127  1  0  0  0  0
112113  1  0  0  0  0
112128  1  0  0  0  0
113129  1  0  0  0  0
114115  1  0  0  0  0
114116  1  0  0  0  0
114130  1  0  0  0  0
115131  1  0  0  0  0
115132  1  0  0  0  0
115 53  1  0  0  0  0
116117  1  0  0  0  0
116121  1  0  0  0  0
117118  1  0  0  0  0
117133  1  0  0  0  0
118119  1  0  0  0  0
118134  1  0  0  0  0
119120  1  0  0  0  0
119135  1  0  0  0  0
120121  1  0  0  0  0
120136  1  0  0  0  0
121137  1  0  0  0  0
138 53  1  0  0  0  0
139 53  1  0  0  0  0
140141  1  0  0  0  0
140149  1  0  0  0  0
140150  1  0  0  0  0
140151  1  0  0  0  0
141142  1  0  0  0  0
141148  2  0  0  0  0
141138  1  0  0  0  0
142143  1  0  0  0  0
142147  1  0  0  0  0
143144  1  0  0  0  0
143152  1  0  0  0  0
144145  1  0  0  0  0
144153  1  0  0  0  0
145146  1  0  0  0  0
145154  1  0  0  0  0
146147  1  0  0  0  0
147155  1  0  0  0  0
148122  1  0  0  0  0
M  END
