 energy: -233.585824385127 gnorm: 0.001012920915 xtb: 6.7.1 (edcfbbe)
          07072520323D

158170  0     0  0            999 V2000
    3.1604    4.6063    3.2097 C   0  0  0  0  0  3  0  0  0  0  0  0
    2.8367    3.7345    2.1812 C   0  0  0  0  0  3  0  0  0  0  0  0
    2.5235    2.4156    2.4610 C   0  0  0  0  0  3  0  0  0  0  0  0
    2.5415    1.9368    3.7715 C   0  0  0  0  0  3  0  0  0  0  0  0
    1.8836    0.2402    4.0871 P   0  0  0  0  0  4  0  0  0  0  0  0
    2.7437   -0.0891    5.6842 C   0  0  0  0  0  3  0  0  0  0  0  0
    2.1777    0.4565    6.8315 C   0  0  0  0  0  3  0  0  0  0  0  0
    2.8072    0.3399    8.0598 C   0  0  0  0  0  3  0  0  0  0  0  0
    4.0101   -0.3419    8.1537 C   0  0  0  0  0  3  0  0  0  0  0  0
    4.5670   -0.9124    7.0196 C   0  0  0  0  0  3  0  0  0  0  0  0
    3.9452   -0.7873    5.7894 C   0  0  0  0  0  3  0  0  0  0  0  0
    2.9413   -0.7868    2.9815 C   0  0  0  0  0  3  0  0  0  0  0  0
    2.6843   -2.1551    2.8354 C   0  0  0  0  0  3  0  0  0  0  0  0
    3.5581   -2.9308    2.0536 C   0  0  0  0  0  3  0  0  0  0  0  0
    4.6393   -2.3506    1.3991 C   0  0  0  0  0  3  0  0  0  0  0  0
    4.8905   -0.9998    1.5631 C   0  0  0  0  0  3  0  0  0  0  0  0
    4.0595   -0.2345    2.3620 C   0  0  0  0  0  3  0  0  0  0  0  0
    3.2920   -4.2755    1.9073 O   0  0  0  0  0  0  0  0  0  0  0  0
    4.3394   -5.1858    2.2159 C   0  0  0  0  0  0  0  0  0  0  0  0
    3.9890   -6.0086    3.4640 C   0  0  0  0  0  0  0  0  0  0  0  0
    4.0835   -5.1844    4.7533 C   0  0  0  0  0  0  0  0  0  0  0  0
    3.3956   -3.9503    4.6588 O   0  0  0  0  0  0  0  0  0  0  0  0
    2.0570   -3.9783    4.3388 C   0  0  0  0  0  3  0  0  0  0  0  0
    1.1724   -4.9527    4.7893 C   0  0  0  0  0  3  0  0  0  0  0  0
   -0.1531   -4.9050    4.3911 C   0  0  0  0  0  3  0  0  0  0  0  0
   -0.6158   -3.8627    3.6063 C   0  0  0  0  0  3  0  0  0  0  0  0
    0.2555   -2.8714    3.1645 C   0  0  0  0  0  3  0  0  0  0  0  0
   -0.3514   -1.3524    2.3224 P   0  0  0  0  0  4  0  0  0  0  0  0
    0.6565   -1.4450    0.7818 C   0  0  0  0  0  3  0  0  0  0  0  0
    0.9784   -0.2711    0.1105 C   0  0  0  0  0  3  0  0  0  0  0  0
    1.7319   -0.3121   -1.0511 C   0  0  0  0  0  3  0  0  0  0  0  0
    2.1594   -1.5305   -1.5547 C   0  0  0  0  0  3  0  0  0  0  0  0
    1.8206   -2.7067   -0.9030 C   0  0  0  0  0  3  0  0  0  0  0  0
    1.0696   -2.6691    0.2590 C   0  0  0  0  0  3  0  0  0  0  0  0
   -1.9818   -1.8625    1.6257 C   0  0  0  0  0  3  0  0  0  0  0  0
   -3.0622   -1.8762    2.5094 C   0  0  0  0  0  3  0  0  0  0  0  0
   -4.3426   -2.1631    2.0675 C   0  0  0  0  0  3  0  0  0  0  0  0
   -4.5629   -2.4286    0.7245 C   0  0  0  0  0  3  0  0  0  0  0  0
   -3.4988   -2.4069   -0.1634 C   0  0  0  0  0  3  0  0  0  0  0  0
   -2.2160   -2.1232    0.2786 C   0  0  0  0  0  3  0  0  0  0  0  0
    1.6112   -2.9389    3.5041 C   0  0  0  0  0  3  0  0  0  0  0  0
    2.8713    2.8207    4.7952 C   0  0  0  0  0  3  0  0  0  0  0  0
    3.1790    4.1432    4.5154 C   0  0  0  0  0  3  0  0  0  0  0  0
   -0.3896    0.4380    3.7679 Ru  0  0  0  0  0  0  0  0  0  0  0  0
    3.3971    5.6408    2.9946 H   0  0  0  0  0  0  0  0  0  0  0  0
    2.8208    4.0861    1.1568 H   0  0  0  0  0  0  0  0  0  0  0  0
    2.2576    1.7382    1.6594 H   0  0  0  0  0  0  0  0  0  0  0  0
    1.2215    0.9600    6.7594 H   0  0  0  0  0  0  0  0  0  0  0  0
    2.3547    0.7728    8.9436 H   0  0  0  0  0  0  0  0  0  0  0  0
    4.5029   -0.4441    9.1125 H   0  0  0  0  0  0  0  0  0  0  0  0
    5.4947   -1.4660    7.0947 H   0  0  0  0  0  0  0  0  0  0  0  0
    4.3882   -1.2445    4.9141 H   0  0  0  0  0  0  0  0  0  0  0  0
    5.2784   -2.9600    0.7740 H   0  0  0  0  0  0  0  0  0  0  0  0
    5.7442   -0.5450    1.0763 H   0  0  0  0  0  0  0  0  0  0  0  0
    4.3010    0.8084    2.5183 H   0  0  0  0  0  0  0  0  0  0  0  0
    4.4486   -5.8614    1.3574 H   0  0  0  0  0  0  0  0  0  0  0  0
    5.2860   -4.6525    2.3734 H   0  0  0  0  0  0  0  0  0  0  0  0
    2.9706   -6.3859    3.3414 H   0  0  0  0  0  0  0  0  0  0  0  0
    4.6721   -6.8590    3.5386 H   0  0  0  0  0  0  0  0  0  0  0  0
    3.7309   -5.7759    5.6110 H   0  0  0  0  0  0  0  0  0  0  0  0
    5.1225   -4.8916    4.9432 H   0  0  0  0  0  0  0  0  0  0  0  0
    1.5179   -5.7519    5.4310 H   0  0  0  0  0  0  0  0  0  0  0  0
   -0.8335   -5.6905    4.6971 H   0  0  0  0  0  0  0  0  0  0  0  0
   -1.6543   -3.8342    3.3045 H   0  0  0  0  0  0  0  0  0  0  0  0
    0.6288    0.6679    0.5206 H   0  0  0  0  0  0  0  0  0  0  0  0
    1.9862    0.6065   -1.5657 H   0  0  0  0  0  0  0  0  0  0  0  0
    2.7535   -1.5651   -2.4596 H   0  0  0  0  0  0  0  0  0  0  0  0
    2.1462   -3.6603   -1.3000 H   0  0  0  0  0  0  0  0  0  0  0  0
    0.8108   -3.5889    0.7689 H   0  0  0  0  0  0  0  0  0  0  0  0
   -2.8802   -1.6758    3.5578 H   0  0  0  0  0  0  0  0  0  0  0  0
   -5.1638   -2.1758    2.7739 H   0  0  0  0  0  0  0  0  0  0  0  0
   -5.5620   -2.6496    0.3694 H   0  0  0  0  0  0  0  0  0  0  0  0
   -3.6689   -2.6117   -1.2135 H   0  0  0  0  0  0  0  0  0  0  0  0
   -1.3971   -2.1060   -0.4290 H   0  0  0  0  0  0  0  0  0  0  0  0
    2.9048    2.4779    5.8210 H   0  0  0  0  0  0  0  0  0  0  0  0
    3.4342    4.8154    5.3254 H   0  0  0  0  0  0  0  0  0  0  0  0
   -0.8886   -0.5430    5.1279 H   0  0  0  0  0  0  0  0  0  0  0  0
   -0.0215    1.4383    2.5842 H   0  0  0  0  0  0  0  0  0  0  0  0
   -3.9785    6.8766   -0.7339 C   0  0  0  0  0  0  0  0  0  0  0  0
   -3.1166    5.7586   -0.6833 O   0  0  0  0  0  0  0  0  0  0  0  0
   -3.1214    4.9869    0.4404 C   0  0  0  0  0  3  0  0  0  0  0  0
   -3.9578    5.1732    1.5383 C   0  0  0  0  0  3  0  0  0  0  0  0
   -3.8551    4.3371    2.6385 C   0  0  0  0  0  3  0  0  0  0  0  0
   -2.9116    3.3141    2.7009 C   0  0  0  0  0  3  0  0  0  0  0  0
   -2.8147    2.4445    3.9470 C   0  0  0  0  0  0  0  0  0  0  0  0
   -2.4102    1.0471    3.5956 N   0  0  0  0  0  4  0  0  0  0  0  0
   -4.2502    2.3096    4.4600 C   0  0  0  0  0  3  0  0  0  0  0  0
   -5.1518    1.6468    3.6246 C   0  0  0  0  0  3  0  0  0  0  0  0
   -6.4737    1.4409    3.9748 C   0  0  0  0  0  3  0  0  0  0  0  0
   -6.9480    1.9091    5.1983 C   0  0  0  0  0  3  0  0  0  0  0  0
   -8.2224    1.7582    5.6564 O   0  0  0  0  0  0  0  0  0  0  0  0
   -9.1464    1.0602    4.8470 C   0  0  0  0  0  0  0  0  0  0  0  0
   -6.0658    2.5940    6.0332 C   0  0  0  0  0  3  0  0  0  0  0  0
   -4.7466    2.7905    5.6697 C   0  0  0  0  0  3  0  0  0  0  0  0
   -1.8050    2.9281    5.0332 C   0  0  0  0  0  0  0  0  0  0  0  0
   -0.5804    2.1069    5.0546 N   0  0  0  0  0  4  0  0  0  0  0  0
   -1.3458    4.4079    5.0842 C   0  0  0  0  0  0  0  0  0  0  0  0
   -0.6412    4.8975    3.8127 C   0  0  0  0  0  0  0  0  0  0  0  0
   -2.4259    5.4007    5.5200 C   0  0  0  0  0  0  0  0  0  0  0  0
   -2.1204    3.1046    1.5724 C   0  0  0  0  0  3  0  0  0  0  0  0
   -2.2169    3.9247    0.4663 C   0  0  0  0  0  3  0  0  0  0  0  0
   -3.7737    7.3626   -1.6889 H   0  0  0  0  0  0  0  0  0  0  0  0
   -3.7722    7.5782    0.0822 H   0  0  0  0  0  0  0  0  0  0  0  0
   -5.0313    6.5747   -0.6993 H   0  0  0  0  0  0  0  0  0  0  0  0
   -4.6986    5.9604    1.5510 H   0  0  0  0  0  0  0  0  0  0  0  0
   -4.5447    4.4927    3.4583 H   0  0  0  0  0  0  0  0  0  0  0  0
   -2.8714    0.4494    4.2777 H   0  0  0  0  0  0  0  0  0  0  0  0
   -2.7909    0.8157    2.6830 H   0  0  0  0  0  0  0  0  0  0  0  0
   -4.8310    1.2885    2.6540 H   0  0  0  0  0  0  0  0  0  0  0  0
   -7.1193    0.9169    3.2844 H   0  0  0  0  0  0  0  0  0  0  0  0
   -8.8210    0.0301    4.6641 H   0  0  0  0  0  0  0  0  0  0  0  0
   -9.3049    1.5686    3.8894 H   0  0  0  0  0  0  0  0  0  0  0  0
  -10.0810    1.0496    5.4098 H   0  0  0  0  0  0  0  0  0  0  0  0
   -6.4378    2.9672    6.9776 H   0  0  0  0  0  0  0  0  0  0  0  0
   -4.1145    3.3331    6.3571 H   0  0  0  0  0  0  0  0  0  0  0  0
   -2.2993    2.7202    5.9890 H   0  0  0  0  0  0  0  0  0  0  0  0
    0.2370    2.6973    4.9363 H   0  0  0  0  0  0  0  0  0  0  0  0
   -0.5467    1.6891    5.9929 H   0  0  0  0  0  0  0  0  0  0  0  0
   -0.5958    4.4172    5.8908 H   0  0  0  0  0  0  0  0  0  0  0  0
    0.0703    5.6839    4.0666 H   0  0  0  0  0  0  0  0  0  0  0  0
   -1.3535    5.3057    3.0995 H   0  0  0  0  0  0  0  0  0  0  0  0
   -0.0937    4.0929    3.3227 H   0  0  0  0  0  0  0  0  0  0  0  0
   -3.2481    5.4374    4.8082 H   0  0  0  0  0  0  0  0  0  0  0  0
   -1.9880    6.3971    5.5856 H   0  0  0  0  0  0  0  0  0  0  0  0
   -2.8175    5.1421    6.5032 H   0  0  0  0  0  0  0  0  0  0  0  0
   -1.3922    2.3061    1.5686 H   0  0  0  0  0  0  0  0  0  0  0  0
   -1.5875    3.7625   -0.3980 H   0  0  0  0  0  0  0  0  0  0  0  0
   -1.8322    0.6544    6.9711 O   0  0  0  0  0  0  0  0  0  0  0  0
   -1.6642   -0.5571    6.6633 C   0  0  0  0  0  0  0  0  0  0  0  0
   -0.6785   -1.3513    7.5090 C   0  0  0  0  0  0  0  0  0  0  0  0
    0.2657   -2.3268    6.8200 C   0  0  0  0  0  0  0  0  0  0  0  0
    1.0995   -3.0711    7.8414 C   0  0  0  0  0  0  0  0  0  0  0  0
    0.4291   -4.1502    8.5326 N   0  0  0  0  0  0  0  0  0  0  0  0
   -0.8238   -4.7787    8.1062 C   0  0  0  0  0  0  0  0  0  0  0  0
    1.2132   -4.9519    9.3317 O   0  0  0  0  0  0  0  0  0  0  0  0
    1.4033   -4.4089   10.6278 C   0  0  0  0  0  0  0  0  0  0  0  0
    2.2591   -2.7749    8.1760 O   0  0  0  0  0  0  0  0  0  0  0  0
   -2.9119   -1.3125    6.2404 C   0  0  0  0  0  3  0  0  0  0  0  0
   -4.1061   -0.6144    6.3374 C   0  0  0  0  0  3  0  0  0  0  0  0
   -5.3261   -1.2476    6.0433 C   0  0  0  0  0  3  0  0  0  0  0  0
   -5.3335   -2.5363    5.6692 C   0  0  0  0  0  3  0  0  0  0  0  0
   -4.1494   -3.2264    5.5690 C   0  0  0  0  0  3  0  0  0  0  0  0
   -2.9532   -2.6047    5.8545 C   0  0  0  0  0  3  0  0  0  0  0  0
   -0.0839   -0.6331    8.0464 H   0  0  0  0  0  0  0  0  0  0  0  0
   -1.2826   -1.8735    8.2317 H   0  0  0  0  0  0  0  0  0  0  0  0
   -0.2607   -3.0399    6.2125 H   0  0  0  0  0  0  0  0  0  0  0  0
    0.9441   -1.7818    6.1873 H   0  0  0  0  0  0  0  0  0  0  0  0
   -1.0806   -5.4988    8.8618 H   0  0  0  0  0  0  0  0  0  0  0  0
   -1.6027   -4.0411    8.0384 H   0  0  0  0  0  0  0  0  0  0  0  0
   -0.7109   -5.2823    7.1629 H   0  0  0  0  0  0  0  0  0  0  0  0
    1.9480   -3.4831   10.5715 H   0  0  0  0  0  0  0  0  0  0  0  0
    0.4614   -4.2545   11.1246 H   0  0  0  0  0  0  0  0  0  0  0  0
    1.9831   -5.1455   11.1542 H   0  0  0  0  0  0  0  0  0  0  0  0
   -4.0928    0.4071    6.6622 H   0  0  0  0  0  0  0  0  0  0  0  0
   -6.2320   -0.6812    6.1389 H   0  0  0  0  0  0  0  0  0  0  0  0
   -6.2562   -3.0388    5.4505 H   0  0  0  0  0  0  0  0  0  0  0  0
   -4.1494   -4.2552    5.2649 H   0  0  0  0  0  0  0  0  0  0  0  0
   -2.0540   -3.1747    5.7323 H   0  0  0  0  0  0  0  0  0  0  0  0
  1  2  1  0  0  0  0
  1 43  1  0  0  0  0
  1 45  1  0  0  0  0
  2  3  1  0  0  0  0
  2 46  1  0  0  0  0
  3  4  1  0  0  0  0
  3 47  1  0  0  0  0
  4  5  1  0  0  0  0
  4 42  1  0  0  0  0
  5  6  1  0  0  0  0
  5 12  1  0  0  0  0
  5 44  1  0  0  0  0
  6  7  1  0  0  0  0
  6 11  1  0  0  0  0
  7  8  1  0  0  0  0
  7 48  1  0  0  0  0
  8  9  1  0  0  0  0
  8 49  1  0  0  0  0
  9 10  1  0  0  0  0
  9 50  1  0  0  0  0
 10 11  1  0  0  0  0
 10 51  1  0  0  0  0
 11 52  1  0  0  0  0
 12 13  1  0  0  0  0
 12 17  1  0  0  0  0
 13 14  1  0  0  0  0
 13 41  1  0  0  0  0
 14 15  1  0  0  0  0
 14 18  1  0  0  0  0
 15 16  1  0  0  0  0
 15 53  1  0  0  0  0
 16 17  1  0  0  0  0
 16 54  1  0  0  0  0
 17 55  1  0  0  0  0
 18 19  1  0  0  0  0
 19 20  1  0  0  0  0
 19 56  1  0  0  0  0
 19 57  1  0  0  0  0
 20 21  1  0  0  0  0
 20 58  1  0  0  0  0
 20 59  1  0  0  0  0
 21 22  1  0  0  0  0
 21 60  1  0  0  0  0
 21 61  1  0  0  0  0
 22 23  1  0  0  0  0
 23 24  1  0  0  0  0
 23 41  1  0  0  0  0
 24 25  1  0  0  0  0
 24 62  1  0  0  0  0
 25 26  1  0  0  0  0
 25 63  1  0  0  0  0
 26 27  1  0  0  0  0
 26 64  1  0  0  0  0
 27 28  1  0  0  0  0
 27 41  1  0  0  0  0
 28 29  1  0  0  0  0
 28 35  1  0  0  0  0
 28 44  1  0  0  0  0
 29 30  1  0  0  0  0
 29 34  1  0  0  0  0
 30 31  1  0  0  0  0
 30 65  1  0  0  0  0
 31 32  1  0  0  0  0
 31 66  1  0  0  0  0
 32 33  1  0  0  0  0
 32 67  1  0  0  0  0
 33 34  1  0  0  0  0
 33 68  1  0  0  0  0
 34 69  1  0  0  0  0
 35 36  1  0  0  0  0
 35 40  1  0  0  0  0
 36 37  1  0  0  0  0
 36 70  1  0  0  0  0
 37 38  1  0  0  0  0
 37 71  1  0  0  0  0
 38 39  1  0  0  0  0
 38 72  1  0  0  0  0
 39 40  1  0  0  0  0
 39 73  1  0  0  0  0
 40 74  1  0  0  0  0
 42 43  1  0  0  0  0
 42 75  1  0  0  0  0
 43 76  1  0  0  0  0
 44 96  1  0  0  0  0
 77 44  1  0  0  0  0
 78 44  1  0  0  0  0
 79 80  1  0  0  0  0
 79102  1  0  0  0  0
 79103  1  0  0  0  0
 79104  1  0  0  0  0
 80 81  1  0  0  0  0
 81 82  1  0  0  0  0
 81101  1  0  0  0  0
 82 83  1  0  0  0  0
 82105  1  0  0  0  0
 83 84  1  0  0  0  0
 83106  1  0  0  0  0
 84 85  1  0  0  0  0
 84100  1  0  0  0  0
 85 86  1  0  0  0  0
 85 87  1  0  0  0  0
 85 95  1  0  0  0  0
 86107  1  0  0  0  0
 86108  1  0  0  0  0
 86 44  1  0  0  0  0
 87 88  1  0  0  0  0
 87 94  1  0  0  0  0
 88 89  1  0  0  0  0
 88109  1  0  0  0  0
 89 90  1  0  0  0  0
 89110  1  0  0  0  0
 90 91  1  0  0  0  0
 90 93  1  0  0  0  0
 91 92  1  0  0  0  0
 92111  1  0  0  0  0
 92112  1  0  0  0  0
 92113  1  0  0  0  0
 93 94  1  0  0  0  0
 93114  1  0  0  0  0
 94115  1  0  0  0  0
 95 96  1  0  0  0  0
 95 97  1  0  0  0  0
 95116  1  0  0  0  0
 96117  1  0  0  0  0
 96118  1  0  0  0  0
 97 98  1  0  0  0  0
 97 99  1  0  0  0  0
 97119  1  0  0  0  0
 98120  1  0  0  0  0
 98121  1  0  0  0  0
 98122  1  0  0  0  0
 99123  1  0  0  0  0
 99124  1  0  0  0  0
 99125  1  0  0  0  0
100101  1  0  0  0  0
100126  1  0  0  0  0
101127  1  0  0  0  0
128129  2  0  0  0  0
128118  1  0  0  0  0
129130  1  0  0  0  0
129138  1  0  0  0  0
129 77  1  0  0  0  0
130131  1  0  0  0  0
130144  1  0  0  0  0
130145  1  0  0  0  0
131132  1  0  0  0  0
131146  1  0  0  0  0
131147  1  0  0  0  0
132133  1  0  0  0  0
132137  2  0  0  0  0
133134  1  0  0  0  0
133135  1  0  0  0  0
134148  1  0  0  0  0
134149  1  0  0  0  0
134150  1  0  0  0  0
135136  1  0  0  0  0
136151  1  0  0  0  0
136152  1  0  0  0  0
136153  1  0  0  0  0
138139  1  0  0  0  0
138143  1  0  0  0  0
139140  1  0  0  0  0
139154  1  0  0  0  0
140141  1  0  0  0  0
140155  1  0  0  0  0
141142  1  0  0  0  0
141156  1  0  0  0  0
142143  1  0  0  0  0
142157  1  0  0  0  0
143158  1  0  0  0  0
M  END
