 energy: -212.615817687058 gnorm: 0.000918422880 xtb: 6.7.1 (edcfbbe)
          07072500443D

145158  0     0  0            999 V2000
   -5.7016   -1.7680    3.1731 C   0  0  0  0  0  3  0  0  0  0  0  0
   -5.2949   -2.1350    1.8934 C   0  0  0  0  0  3  0  0  0  0  0  0
   -3.9472   -2.1649    1.5677 C   0  0  0  0  0  3  0  0  0  0  0  0
   -2.9649   -1.8437    2.5002 C   0  0  0  0  0  3  0  0  0  0  0  0
   -1.1874   -1.6055    2.0497 P   0  0  0  0  0  4  0  0  0  0  0  0
   -1.2361   -2.4329    0.4094 C   0  0  0  0  0  3  0  0  0  0  0  0
   -0.9632   -1.7333   -0.7571 C   0  0  0  0  0  3  0  0  0  0  0  0
   -1.0267   -2.3529   -1.9953 C   0  0  0  0  0  3  0  0  0  0  0  0
   -1.3830   -3.6974   -2.0785 C   0  0  0  0  0  3  0  0  0  0  0  0
   -1.7030   -4.3956   -0.9096 C   0  0  0  0  0  3  0  0  0  0  0  0
   -1.6250   -3.7716    0.3185 C   0  0  0  0  0  3  0  0  0  0  0  0
   -0.2334   -2.8453    3.0361 C   0  0  0  0  0  3  0  0  0  0  0  0
   -0.7618   -3.2418    4.2682 C   0  0  0  0  0  3  0  0  0  0  0  0
   -0.0063   -3.9017    5.2214 C   0  0  0  0  0  3  0  0  0  0  0  0
    1.3297   -4.1733    4.9769 C   0  0  0  0  0  3  0  0  0  0  0  0
    1.8551   -3.8368    3.7431 C   0  0  0  0  0  3  0  0  0  0  0  0
    1.0982   -3.1858    2.7612 C   0  0  0  0  0  3  0  0  0  0  0  0
    1.8868   -3.2361    1.4599 C   0  0  0  0  0  0  0  0  0  0  0  0
    3.3552   -3.4155    1.9416 C   0  0  0  0  0  0  0  0  0  0  0  0
    3.2496   -4.1531    3.2782 C   0  0  0  0  0  0  0  0  0  0  0  0
    1.4724   -4.5554    0.7471 C   0  0  0  0  0  0  0  0  0  0  0  0
    1.9247   -4.3955   -0.7058 C   0  0  0  0  0  0  0  0  0  0  0  0
    2.0368   -2.9059   -0.8725 C   0  0  0  0  0  3  0  0  0  0  0  0
    1.8896   -2.2111    0.3343 C   0  0  0  0  0  3  0  0  0  0  0  0
    1.9909   -0.8133    0.3329 C   0  0  0  0  0  3  0  0  0  0  0  0
    1.5770    0.2596    1.7816 P   0  0  0  0  0  4  0  0  0  0  0  0
    3.0023   -0.2221    2.8360 C   0  0  0  0  0  3  0  0  0  0  0  0
    4.3179   -0.0265    2.4096 C   0  0  0  0  0  3  0  0  0  0  0  0
    5.3722   -0.3990    3.2178 C   0  0  0  0  0  3  0  0  0  0  0  0
    5.1374   -0.9828    4.4671 C   0  0  0  0  0  3  0  0  0  0  0  0
    3.8262   -1.1998    4.8855 C   0  0  0  0  0  3  0  0  0  0  0  0
    2.7750   -0.8240    4.0644 C   0  0  0  0  0  3  0  0  0  0  0  0
    2.1410    1.9557    1.3086 C   0  0  0  0  0  3  0  0  0  0  0  0
    2.9202    2.7151    2.1771 C   0  0  0  0  0  3  0  0  0  0  0  0
    3.1386    4.0683    1.9648 C   0  0  0  0  0  3  0  0  0  0  0  0
    2.5732    4.7033    0.8623 C   0  0  0  0  0  3  0  0  0  0  0  0
    1.7703    3.9574   -0.0047 C   0  0  0  0  0  3  0  0  0  0  0  0
    1.5358    2.6185    0.2340 C   0  0  0  0  0  3  0  0  0  0  0  0
    2.3228   -0.1947   -0.8762 C   0  0  0  0  0  3  0  0  0  0  0  0
    2.4769   -0.8955   -2.0589 C   0  0  0  0  0  3  0  0  0  0  0  0
    2.3004   -2.2689   -2.0706 C   0  0  0  0  0  3  0  0  0  0  0  0
   -3.3903   -1.4396    3.7703 C   0  0  0  0  0  3  0  0  0  0  0  0
   -4.7274   -1.4161    4.1108 C   0  0  0  0  0  3  0  0  0  0  0  0
   -0.6179    0.6008    2.4052 Ru  0  0  0  0  0  0  0  0  0  0  0  0
    2.7135    6.0247    0.5535 O   0  0  0  0  0  0  0  0  0  0  0  0
    3.4360    6.8484    1.4448 C   0  0  0  0  0  0  0  0  0  0  0  0
    6.2522   -1.3080    5.1825 O   0  0  0  0  0  0  0  0  0  0  0  0
    6.0866   -1.9018    6.4532 C   0  0  0  0  0  0  0  0  0  0  0  0
   -1.4518   -4.4202   -3.2330 O   0  0  0  0  0  0  0  0  0  0  0  0
   -1.0857   -3.7885   -4.4420 C   0  0  0  0  0  0  0  0  0  0  0  0
   -6.9958   -1.6955    3.5985 O   0  0  0  0  0  0  0  0  0  0  0  0
   -8.0231   -1.9997    2.6780 C   0  0  0  0  0  0  0  0  0  0  0  0
   -6.0183   -2.3943    1.1328 H   0  0  0  0  0  0  0  0  0  0  0  0
   -3.6717   -2.4380    0.5575 H   0  0  0  0  0  0  0  0  0  0  0  0
   -0.6932   -0.6878   -0.6789 H   0  0  0  0  0  0  0  0  0  0  0  0
   -0.7930   -1.7816   -2.8826 H   0  0  0  0  0  0  0  0  0  0  0  0
   -1.9985   -5.4326   -0.9951 H   0  0  0  0  0  0  0  0  0  0  0  0
   -1.8795   -4.3144    1.2214 H   0  0  0  0  0  0  0  0  0  0  0  0
   -1.8035   -3.0477    4.4797 H   0  0  0  0  0  0  0  0  0  0  0  0
   -0.4611   -4.1968    6.1589 H   0  0  0  0  0  0  0  0  0  0  0  0
    1.9445   -4.6652    5.7201 H   0  0  0  0  0  0  0  0  0  0  0  0
    3.9427   -3.9644    1.2029 H   0  0  0  0  0  0  0  0  0  0  0  0
    3.8231   -2.4405    2.0838 H   0  0  0  0  0  0  0  0  0  0  0  0
    3.3661   -5.2349    3.1567 H   0  0  0  0  0  0  0  0  0  0  0  0
    4.0046   -3.8183    3.9943 H   0  0  0  0  0  0  0  0  0  0  0  0
    1.9218   -5.4226    1.2351 H   0  0  0  0  0  0  0  0  0  0  0  0
    0.3885   -4.6685    0.7894 H   0  0  0  0  0  0  0  0  0  0  0  0
    2.8966   -4.8668   -0.8849 H   0  0  0  0  0  0  0  0  0  0  0  0
    1.2095   -4.8284   -1.4103 H   0  0  0  0  0  0  0  0  0  0  0  0
    4.5075    0.4156    1.4386 H   0  0  0  0  0  0  0  0  0  0  0  0
    6.3974   -0.2521    2.9059 H   0  0  0  0  0  0  0  0  0  0  0  0
    3.6127   -1.6610    5.8397 H   0  0  0  0  0  0  0  0  0  0  0  0
    1.7483   -1.0004    4.3595 H   0  0  0  0  0  0  0  0  0  0  0  0
    3.3662    2.2512    3.0473 H   0  0  0  0  0  0  0  0  0  0  0  0
    3.7474    4.6154    2.6711 H   0  0  0  0  0  0  0  0  0  0  0  0
    1.3234    4.4639   -0.8498 H   0  0  0  0  0  0  0  0  0  0  0  0
    0.8429    2.0785   -0.3979 H   0  0  0  0  0  0  0  0  0  0  0  0
    2.4945    0.8718   -0.8945 H   0  0  0  0  0  0  0  0  0  0  0  0
    2.7359   -0.3665   -2.9675 H   0  0  0  0  0  0  0  0  0  0  0  0
    2.4017   -2.8410   -2.9842 H   0  0  0  0  0  0  0  0  0  0  0  0
   -2.6558   -1.1131    4.4941 H   0  0  0  0  0  0  0  0  0  0  0  0
   -5.0441   -1.1136    5.0997 H   0  0  0  0  0  0  0  0  0  0  0  0
    2.9786    6.8549    2.4406 H   0  0  0  0  0  0  0  0  0  0  0  0
    3.3903    7.8519    1.0193 H   0  0  0  0  0  0  0  0  0  0  0  0
    4.4828    6.5345    1.5232 H   0  0  0  0  0  0  0  0  0  0  0  0
    7.0957   -2.0635    6.8354 H   0  0  0  0  0  0  0  0  0  0  0  0
    5.5674   -2.8642    6.3820 H   0  0  0  0  0  0  0  0  0  0  0  0
    5.5403   -1.2417    7.1362 H   0  0  0  0  0  0  0  0  0  0  0  0
   -1.1669   -4.5576   -5.2116 H   0  0  0  0  0  0  0  0  0  0  0  0
   -0.0553   -3.4181   -4.4019 H   0  0  0  0  0  0  0  0  0  0  0  0
   -1.7617   -2.9605   -4.6830 H   0  0  0  0  0  0  0  0  0  0  0  0
   -8.9570   -1.8702    3.2271 H   0  0  0  0  0  0  0  0  0  0  0  0
   -7.9505   -3.0337    2.3230 H   0  0  0  0  0  0  0  0  0  0  0  0
   -8.0077   -1.3161    1.8215 H   0  0  0  0  0  0  0  0  0  0  0  0
   -0.3373    0.5021    4.1298 H   0  0  0  0  0  0  0  0  0  0  0  0
   -0.9786    0.9162    0.8842 H   0  0  0  0  0  0  0  0  0  0  0  0
   -0.4098    2.7209    2.7209 N   0  0  0  0  0  4  0  0  0  0  0  0
   -1.6585    3.4705    2.8860 C   0  0  0  0  0  0  0  0  0  0  0  0
   -1.5849    4.8182    2.2100 C   0  0  0  0  0  3  0  0  0  0  0  0
   -1.2950    4.9071    0.8529 C   0  0  0  0  0  3  0  0  0  0  0  0
   -1.2007    6.1438    0.2343 C   0  0  0  0  0  3  0  0  0  0  0  0
   -1.3980    7.3033    0.9662 C   0  0  0  0  0  3  0  0  0  0  0  0
   -1.6939    7.2230    2.3182 C   0  0  0  0  0  3  0  0  0  0  0  0
   -1.7863    5.9884    2.9373 C   0  0  0  0  0  3  0  0  0  0  0  0
   -2.8273    2.6130    2.3578 C   0  0  0  0  0  0  0  0  0  0  0  0
   -2.6069    1.2687    2.8966 N   0  0  0  0  0  4  0  0  0  0  0  0
   -4.1560    3.2204    2.7398 C   0  0  0  0  0  3  0  0  0  0  0  0
   -4.8876    2.7766    3.8359 C   0  0  0  0  0  3  0  0  0  0  0  0
   -6.0833    3.3881    4.1792 C   0  0  0  0  0  3  0  0  0  0  0  0
   -6.5636    4.4536    3.4359 C   0  0  0  0  0  3  0  0  0  0  0  0
   -5.8459    4.8971    2.3358 C   0  0  0  0  0  3  0  0  0  0  0  0
   -4.6558    4.2816    1.9886 C   0  0  0  0  0  3  0  0  0  0  0  0
    0.1380    3.1375    1.9741 H   0  0  0  0  0  0  0  0  0  0  0  0
    0.1173    2.8338    3.5956 H   0  0  0  0  0  0  0  0  0  0  0  0
   -1.8208    3.6139    3.9626 H   0  0  0  0  0  0  0  0  0  0  0  0
   -1.1463    4.0035    0.2748 H   0  0  0  0  0  0  0  0  0  0  0  0
   -0.9735    6.2025   -0.8227 H   0  0  0  0  0  0  0  0  0  0  0  0
   -1.3216    8.2692    0.4835 H   0  0  0  0  0  0  0  0  0  0  0  0
   -1.8502    8.1271    2.8933 H   0  0  0  0  0  0  0  0  0  0  0  0
   -2.0130    5.9249    3.9947 H   0  0  0  0  0  0  0  0  0  0  0  0
   -2.7581    2.5453    1.2641 H   0  0  0  0  0  0  0  0  0  0  0  0
   -2.6361    1.3178    3.9112 H   0  0  0  0  0  0  0  0  0  0  0  0
   -3.3531    0.6512    2.5888 H   0  0  0  0  0  0  0  0  0  0  0  0
   -4.5421    1.9449    4.4371 H   0  0  0  0  0  0  0  0  0  0  0  0
   -6.6410    3.0279    5.0345 H   0  0  0  0  0  0  0  0  0  0  0  0
   -7.4943    4.9338    3.7099 H   0  0  0  0  0  0  0  0  0  0  0  0
   -6.2153    5.7246    1.7432 H   0  0  0  0  0  0  0  0  0  0  0  0
   -4.1028    4.6292    1.1245 H   0  0  0  0  0  0  0  0  0  0  0  0
    1.0224    0.9081    6.1759 C   0  0  0  0  0  0  0  0  0  0  0  0
   -0.3377    1.3247    5.6432 C   0  0  0  0  0  0  0  0  0  0  0  0
   -1.5068    0.5615    6.2381 C   0  0  0  0  0  3  0  0  0  0  0  0
   -1.4290   -0.7755    6.5968 C   0  0  0  0  0  3  0  0  0  0  0  0
   -2.5331   -1.3866    7.2168 C   0  0  0  0  0  3  0  0  0  0  0  0
   -3.6523   -0.6842    7.4534 C   0  0  0  0  0  3  0  0  0  0  0  0
   -3.7286    0.6374    7.0854 C   0  0  0  0  0  3  0  0  0  0  0  0
   -2.6465    1.2414    6.4828 C   0  0  0  0  0  3  0  0  0  0  0  0
   -0.5092    2.5467    5.3850 O   0  0  0  0  0  0  0  0  0  0  0  0
    1.1413   -0.1577    6.2408 H   0  0  0  0  0  0  0  0  0  0  0  0
    1.1006    1.3273    7.1634 H   0  0  0  0  0  0  0  0  0  0  0  0
    1.8026    1.3218    5.5631 H   0  0  0  0  0  0  0  0  0  0  0  0
   -0.5558   -1.3611    6.3891 H   0  0  0  0  0  0  0  0  0  0  0  0
   -2.4592   -2.4208    7.4922 H   0  0  0  0  0  0  0  0  0  0  0  0
   -4.4935   -1.1483    7.9318 H   0  0  0  0  0  0  0  0  0  0  0  0
   -4.6205    1.2030    7.2739 H   0  0  0  0  0  0  0  0  0  0  0  0
   -2.6925    2.2824    6.2263 H   0  0  0  0  0  0  0  0  0  0  0  0
  1  2  1  0  0  0  0
  1 43  1  0  0  0  0
  1 51  1  0  0  0  0
  2  3  1  0  0  0  0
  2 53  1  0  0  0  0
  3  4  1  0  0  0  0
  3 54  1  0  0  0  0
  4  5  1  0  0  0  0
  4 42  1  0  0  0  0
  5  6  1  0  0  0  0
  5 12  1  0  0  0  0
  6  7  1  0  0  0  0
  6 11  1  0  0  0  0
  7  8  1  0  0  0  0
  7 55  1  0  0  0  0
  8  9  1  0  0  0  0
  8 56  1  0  0  0  0
  9 10  1  0  0  0  0
  9 49  1  0  0  0  0
 10 11  1  0  0  0  0
 10 57  1  0  0  0  0
 11 58  1  0  0  0  0
 12 13  1  0  0  0  0
 12 17  1  0  0  0  0
 13 14  1  0  0  0  0
 13 59  1  0  0  0  0
 14 15  1  0  0  0  0
 14 60  1  0  0  0  0
 15 61  1  0  0  0  0
 16 15  1  0  0  0  0
 16 17  1  0  0  0  0
 16 20  1  0  0  0  0
 17 18  1  0  0  0  0
 18 19  1  0  0  0  0
 18 21  1  0  0  0  0
 18 24  1  0  0  0  0
 19 20  1  0  0  0  0
 19 62  1  0  0  0  0
 19 63  1  0  0  0  0
 20 64  1  0  0  0  0
 20 65  1  0  0  0  0
 21 22  1  0  0  0  0
 21 66  1  0  0  0  0
 21 67  1  0  0  0  0
 22 23  1  0  0  0  0
 22 68  1  0  0  0  0
 22 69  1  0  0  0  0
 23 24  1  0  0  0  0
 23 41  1  0  0  0  0
 24 25  1  0  0  0  0
 25 26  1  0  0  0  0
 25 39  1  0  0  0  0
 26 27  1  0  0  0  0
 26 33  1  0  0  0  0
 26 44  1  0  0  0  0
 27 28  1  0  0  0  0
 27 32  1  0  0  0  0
 28 29  1  0  0  0  0
 28 70  1  0  0  0  0
 29 30  1  0  0  0  0
 29 71  1  0  0  0  0
 30 31  1  0  0  0  0
 30 47  1  0  0  0  0
 31 32  1  0  0  0  0
 31 72  1  0  0  0  0
 32 73  1  0  0  0  0
 33 34  1  0  0  0  0
 33 38  1  0  0  0  0
 34 35  1  0  0  0  0
 34 74  1  0  0  0  0
 35 36  1  0  0  0  0
 35 75  1  0  0  0  0
 36 37  1  0  0  0  0
 36 45  1  0  0  0  0
 37 38  1  0  0  0  0
 37 76  1  0  0  0  0
 38 77  1  0  0  0  0
 39 40  1  0  0  0  0
 39 78  1  0  0  0  0
 40 41  1  0  0  0  0
 40 79  1  0  0  0  0
 41 80  1  0  0  0  0
 42 43  1  0  0  0  0
 42 81  1  0  0  0  0
 43 82  1  0  0  0  0
 44  5  1  0  0  0  0
 44 97  1  0  0  0  0
 45 46  1  0  0  0  0
 46 83  1  0  0  0  0
 46 84  1  0  0  0  0
 46 85  1  0  0  0  0
 47 48  1  0  0  0  0
 48 86  1  0  0  0  0
 48 87  1  0  0  0  0
 48 88  1  0  0  0  0
 49 50  1  0  0  0  0
 50 89  1  0  0  0  0
 50 90  1  0  0  0  0
 50 91  1  0  0  0  0
 51 52  1  0  0  0  0
 52 92  1  0  0  0  0
 52 93  1  0  0  0  0
 52 94  1  0  0  0  0
 95 44  1  0  0  0  0
 96 44  1  0  0  0  0
 97 98  1  0  0  0  0
 97113  1  0  0  0  0
 97114  1  0  0  0  0
 98 99  1  0  0  0  0
 98105  1  0  0  0  0
 98115  1  0  0  0  0
 99100  1  0  0  0  0
 99104  1  0  0  0  0
100101  1  0  0  0  0
100116  1  0  0  0  0
101102  1  0  0  0  0
101117  1  0  0  0  0
102103  1  0  0  0  0
102118  1  0  0  0  0
103104  1  0  0  0  0
103119  1  0  0  0  0
104120  1  0  0  0  0
105106  1  0  0  0  0
105107  1  0  0  0  0
105121  1  0  0  0  0
106122  1  0  0  0  0
106123  1  0  0  0  0
106 44  1  0  0  0  0
107108  1  0  0  0  0
107112  1  0  0  0  0
108109  1  0  0  0  0
108124  1  0  0  0  0
109110  1  0  0  0  0
109125  1  0  0  0  0
110111  1  0  0  0  0
110126  1  0  0  0  0
111112  1  0  0  0  0
111127  1  0  0  0  0
112128  1  0  0  0  0
129130  1  0  0  0  0
129138  1  0  0  0  0
129139  1  0  0  0  0
129140  1  0  0  0  0
130131  1  0  0  0  0
130137  2  0  0  0  0
130 95  1  0  0  0  0
131132  1  0  0  0  0
131136  1  0  0  0  0
132133  1  0  0  0  0
132141  1  0  0  0  0
133134  1  0  0  0  0
133142  1  0  0  0  0
134135  1  0  0  0  0
134143  1  0  0  0  0
135136  1  0  0  0  0
135144  1  0  0  0  0
136145  1  0  0  0  0
137114  1  0  0  0  0
M  END
