 energy: -167.558953586098 gnorm: 0.000974673959 xtb: 6.7.1 (edcfbbe)
          07072520153D

123133  0     0  0            999 V2000
    2.7883    4.1336    0.0101 C   0  0  0  0  0  3  0  0  0  0  0  0
    3.4837    3.7274    1.1392 C   0  0  0  0  0  3  0  0  0  0  0  0
    3.1578    2.5426    1.7788 C   0  0  0  0  0  3  0  0  0  0  0  0
    2.1313    1.7395    1.2860 C   0  0  0  0  0  3  0  0  0  0  0  0
    1.4603    0.2128    2.0642 P   0  0  0  0  0  4  0  0  0  0  0  0
    2.8852   -0.3785    3.1458 C   0  0  0  0  0  0  0  0  0  0  0  0
    2.4608   -1.5142    4.0884 C   0  0  0  0  0  0  0  0  0  0  0  0
    3.5891   -1.7705    5.1017 C   0  0  0  0  0  0  0  0  0  0  0  0
    3.1374   -2.7618    6.1882 C   0  0  0  0  0  0  0  0  0  0  0  0
    2.3746   -3.9430    5.5788 C   0  0  0  0  0  0  0  0  0  0  0  0
    2.6404   -4.0490    4.0762 C   0  0  0  0  0  0  0  0  0  0  0  0
    2.1096   -2.8048    3.3216 C   0  0  0  0  0  0  0  0  0  0  0  0
    0.6087   -2.9614    3.0137 C   0  0  0  0  0  0  0  0  0  0  0  0
   -0.6237   -1.7239    3.6929 P   0  0  0  0  0  4  0  0  0  0  0  0
   -0.8229   -2.3744    5.4088 C   0  0  0  0  0  3  0  0  0  0  0  0
   -0.5681   -1.5356    6.4878 C   0  0  0  0  0  3  0  0  0  0  0  0
   -0.7151   -1.9941    7.7878 C   0  0  0  0  0  3  0  0  0  0  0  0
   -1.1306   -3.2958    8.0167 C   0  0  0  0  0  3  0  0  0  0  0  0
   -1.4044   -4.1342    6.9457 C   0  0  0  0  0  3  0  0  0  0  0  0
   -1.2523   -3.6791    5.6471 C   0  0  0  0  0  3  0  0  0  0  0  0
   -2.1792   -2.4597    3.0284 C   0  0  0  0  0  3  0  0  0  0  0  0
   -2.2948   -3.1106    1.8036 C   0  0  0  0  0  3  0  0  0  0  0  0
   -3.5385   -3.4909    1.3231 C   0  0  0  0  0  3  0  0  0  0  0  0
   -4.6869   -3.2180    2.0486 C   0  0  0  0  0  3  0  0  0  0  0  0
   -4.5842   -2.5696    3.2705 C   0  0  0  0  0  3  0  0  0  0  0  0
   -3.3421   -2.1973    3.7525 C   0  0  0  0  0  3  0  0  0  0  0  0
    1.7198   -0.8423    0.5709 C   0  0  0  0  0  3  0  0  0  0  0  0
    2.9776   -0.9680   -0.0174 C   0  0  0  0  0  3  0  0  0  0  0  0
    3.1458   -1.7517   -1.1463 C   0  0  0  0  0  3  0  0  0  0  0  0
    2.0606   -2.4067   -1.7103 C   0  0  0  0  0  3  0  0  0  0  0  0
    0.8006   -2.2538   -1.1549 C   0  0  0  0  0  3  0  0  0  0  0  0
    0.6325   -1.4700   -0.0248 C   0  0  0  0  0  3  0  0  0  0  0  0
    1.4409    2.1555    0.1483 C   0  0  0  0  0  3  0  0  0  0  0  0
    1.7638    3.3432   -0.4876 C   0  0  0  0  0  3  0  0  0  0  0  0
   -0.5918    0.4951    3.0608 Ru  0  0  0  0  0  0  0  0  0  0  0  0
    3.0478    5.0619   -0.4830 H   0  0  0  0  0  0  0  0  0  0  0  0
    4.2889    4.3406    1.5251 H   0  0  0  0  0  0  0  0  0  0  0  0
    3.7149    2.2455    2.6586 H   0  0  0  0  0  0  0  0  0  0  0  0
    3.7398   -0.6824    2.5365 H   0  0  0  0  0  0  0  0  0  0  0  0
    3.1734    0.4858    3.7496 H   0  0  0  0  0  0  0  0  0  0  0  0
    1.5727   -1.1825    4.6402 H   0  0  0  0  0  0  0  0  0  0  0  0
    4.4685   -2.1570    4.5753 H   0  0  0  0  0  0  0  0  0  0  0  0
    3.8801   -0.8289    5.5748 H   0  0  0  0  0  0  0  0  0  0  0  0
    4.0195   -3.1121    6.7335 H   0  0  0  0  0  0  0  0  0  0  0  0
    2.4942   -2.2362    6.9010 H   0  0  0  0  0  0  0  0  0  0  0  0
    2.6645   -4.8770    6.0704 H   0  0  0  0  0  0  0  0  0  0  0  0
    1.3003   -3.8108    5.7344 H   0  0  0  0  0  0  0  0  0  0  0  0
    3.7170   -4.1522    3.9052 H   0  0  0  0  0  0  0  0  0  0  0  0
    2.1655   -4.9476    3.6733 H   0  0  0  0  0  0  0  0  0  0  0  0
    2.6371   -2.7726    2.3552 H   0  0  0  0  0  0  0  0  0  0  0  0
    0.4684   -2.9017    1.9308 H   0  0  0  0  0  0  0  0  0  0  0  0
    0.2526   -3.9423    3.3419 H   0  0  0  0  0  0  0  0  0  0  0  0
   -0.2629   -0.5150    6.2954 H   0  0  0  0  0  0  0  0  0  0  0  0
   -0.5090   -1.3295    8.6177 H   0  0  0  0  0  0  0  0  0  0  0  0
   -1.2506   -3.6582    9.0300 H   0  0  0  0  0  0  0  0  0  0  0  0
   -1.7401   -5.1486    7.1241 H   0  0  0  0  0  0  0  0  0  0  0  0
   -1.4788   -4.3349    4.8150 H   0  0  0  0  0  0  0  0  0  0  0  0
   -1.4171   -3.3294    1.2102 H   0  0  0  0  0  0  0  0  0  0  0  0
   -3.6100   -4.0020    0.3706 H   0  0  0  0  0  0  0  0  0  0  0  0
   -5.6566   -3.5096    1.6652 H   0  0  0  0  0  0  0  0  0  0  0  0
   -5.4751   -2.3541    3.8479 H   0  0  0  0  0  0  0  0  0  0  0  0
   -3.2630   -1.7144    4.7199 H   0  0  0  0  0  0  0  0  0  0  0  0
    3.8281   -0.4402    0.3975 H   0  0  0  0  0  0  0  0  0  0  0  0
    4.1279   -1.8491   -1.5925 H   0  0  0  0  0  0  0  0  0  0  0  0
    2.1978   -3.0230   -2.5902 H   0  0  0  0  0  0  0  0  0  0  0  0
   -0.0537   -2.7437   -1.6059 H   0  0  0  0  0  0  0  0  0  0  0  0
   -0.3460   -1.3141    0.4096 H   0  0  0  0  0  0  0  0  0  0  0  0
    0.6550    1.5186   -0.2402 H   0  0  0  0  0  0  0  0  0  0  0  0
    1.2207    3.6510   -1.3730 H   0  0  0  0  0  0  0  0  0  0  0  0
    0.0114    1.2101    4.5406 H   0  0  0  0  0  0  0  0  0  0  0  0
   -1.3459    0.0639    1.7256 H   0  0  0  0  0  0  0  0  0  0  0  0
   -2.5138    0.9292    3.8814 N   0  0  0  0  0  4  0  0  0  0  0  0
   -2.9403    2.3095    3.6116 C   0  0  0  0  0  0  0  0  0  0  0  0
   -4.4416    2.4249    3.7362 C   0  0  0  0  0  3  0  0  0  0  0  0
   -4.9790    2.3395    5.0168 C   0  0  0  0  0  3  0  0  0  0  0  0
   -6.3492    2.3935    5.2133 C   0  0  0  0  0  3  0  0  0  0  0  0
   -7.1984    2.5366    4.1274 C   0  0  0  0  0  3  0  0  0  0  0  0
   -6.6700    2.6234    2.8491 C   0  0  0  0  0  3  0  0  0  0  0  0
   -5.3006    2.5643    2.6504 C   0  0  0  0  0  3  0  0  0  0  0  0
   -2.3365    2.7415    2.2621 C   0  0  0  0  0  0  0  0  0  0  0  0
   -0.8922    2.4896    2.3636 N   0  0  0  0  0  4  0  0  0  0  0  0
   -2.5850    4.1810    1.8777 C   0  0  0  0  0  3  0  0  0  0  0  0
   -3.0146    5.1496    2.7803 C   0  0  0  0  0  3  0  0  0  0  0  0
   -3.1690    6.4656    2.3769 C   0  0  0  0  0  3  0  0  0  0  0  0
   -2.8905    6.8366    1.0708 C   0  0  0  0  0  3  0  0  0  0  0  0
   -2.4600    5.8803    0.1651 C   0  0  0  0  0  3  0  0  0  0  0  0
   -2.3097    4.5637    0.5689 C   0  0  0  0  0  3  0  0  0  0  0  0
   -2.4359    0.8395    4.9018 H   0  0  0  0  0  0  0  0  0  0  0  0
   -3.2149    0.2731    3.5490 H   0  0  0  0  0  0  0  0  0  0  0  0
   -2.4849    2.9143    4.4059 H   0  0  0  0  0  0  0  0  0  0  0  0
   -4.3104    2.2365    5.8632 H   0  0  0  0  0  0  0  0  0  0  0  0
   -6.7538    2.3272    6.2155 H   0  0  0  0  0  0  0  0  0  0  0  0
   -8.2697    2.5828    4.2767 H   0  0  0  0  0  0  0  0  0  0  0  0
   -7.3294    2.7378    1.9978 H   0  0  0  0  0  0  0  0  0  0  0  0
   -4.9070    2.6374    1.6448 H   0  0  0  0  0  0  0  0  0  0  0  0
   -2.7140    2.0740    1.4767 H   0  0  0  0  0  0  0  0  0  0  0  0
   -0.4579    2.6364    1.4564 H   0  0  0  0  0  0  0  0  0  0  0  0
   -0.4876    3.1739    2.9966 H   0  0  0  0  0  0  0  0  0  0  0  0
   -3.2468    4.8841    3.8041 H   0  0  0  0  0  0  0  0  0  0  0  0
   -3.5092    7.2057    3.0904 H   0  0  0  0  0  0  0  0  0  0  0  0
   -3.0115    7.8664    0.7599 H   0  0  0  0  0  0  0  0  0  0  0  0
   -2.2433    6.1591   -0.8585 H   0  0  0  0  0  0  0  0  0  0  0  0
   -1.9804    3.8191   -0.1460 H   0  0  0  0  0  0  0  0  0  0  0  0
    1.4426    3.6672    4.7886 C   0  0  0  0  0  0  0  0  0  0  0  0
    0.1037    3.5326    5.4981 C   0  0  0  0  0  0  0  0  0  0  0  0
   -0.3267    2.1420    5.9494 C   0  0  0  0  0  0  0  0  0  0  0  0
    0.6591    1.5530    6.9403 C   0  0  0  0  0  3  0  0  0  0  0  0
    1.9517    1.1634    6.6290 C   0  0  0  0  0  3  0  0  0  0  0  0
    2.8130    0.7520    7.6612 C   0  0  0  0  0  3  0  0  0  0  0  0
    2.3815    0.7231    8.9319 C   0  0  0  0  0  3  0  0  0  0  0  0
    1.0916    1.0890    9.2313 C   0  0  0  0  0  3  0  0  0  0  0  0
    0.2475    1.5045    8.2245 C   0  0  0  0  0  3  0  0  0  0  0  0
   -1.5525    1.9581    6.1827 O   0  0  0  0  0  0  0  0  0  0  0  0
    1.5410    4.6552    4.3745 H   0  0  0  0  0  0  0  0  0  0  0  0
    1.5247    2.9492    3.9918 H   0  0  0  0  0  0  0  0  0  0  0  0
    2.2538    3.5084    5.4761 H   0  0  0  0  0  0  0  0  0  0  0  0
    0.1346    4.1100    6.4070 H   0  0  0  0  0  0  0  0  0  0  0  0
   -0.6796    3.9570    4.8929 H   0  0  0  0  0  0  0  0  0  0  0  0
    2.2806    1.1468    5.6095 H   0  0  0  0  0  0  0  0  0  0  0  0
    3.8182    0.4669    7.4174 H   0  0  0  0  0  0  0  0  0  0  0  0
    3.0384    0.4095    9.7207 H   0  0  0  0  0  0  0  0  0  0  0  0
    0.7409    1.0590   10.2448 H   0  0  0  0  0  0  0  0  0  0  0  0
   -0.7593    1.7927    8.4584 H   0  0  0  0  0  0  0  0  0  0  0  0
  1  2  1  0  0  0  0
  1 34  1  0  0  0  0
  1 36  1  0  0  0  0
  2  3  1  0  0  0  0
  2 37  1  0  0  0  0
  3  4  1  0  0  0  0
  3 38  1  0  0  0  0
  4  5  1  0  0  0  0
  4 33  1  0  0  0  0
  5  6  1  0  0  0  0
  5 27  1  0  0  0  0
  5 35  1  0  0  0  0
  6  7  1  0  0  0  0
  6 39  1  0  0  0  0
  6 40  1  0  0  0  0
  7  8  1  0  0  0  0
  7 12  1  0  0  0  0
  7 41  1  0  0  0  0
  8  9  1  0  0  0  0
  8 42  1  0  0  0  0
  8 43  1  0  0  0  0
  9 10  1  0  0  0  0
  9 44  1  0  0  0  0
  9 45  1  0  0  0  0
 10 11  1  0  0  0  0
 10 46  1  0  0  0  0
 10 47  1  0  0  0  0
 11 12  1  0  0  0  0
 11 48  1  0  0  0  0
 11 49  1  0  0  0  0
 12 13  1  0  0  0  0
 12 50  1  0  0  0  0
 13 14  1  0  0  0  0
 13 51  1  0  0  0  0
 13 52  1  0  0  0  0
 14 15  1  0  0  0  0
 14 21  1  0  0  0  0
 14 35  1  0  0  0  0
 15 16  1  0  0  0  0
 15 20  1  0  0  0  0
 16 17  1  0  0  0  0
 16 53  1  0  0  0  0
 17 18  1  0  0  0  0
 17 54  1  0  0  0  0
 18 19  1  0  0  0  0
 18 55  1  0  0  0  0
 19 20  1  0  0  0  0
 19 56  1  0  0  0  0
 20 57  1  0  0  0  0
 21 22  1  0  0  0  0
 21 26  1  0  0  0  0
 22 23  1  0  0  0  0
 22 58  1  0  0  0  0
 23 24  1  0  0  0  0
 23 59  1  0  0  0  0
 24 25  1  0  0  0  0
 24 60  1  0  0  0  0
 25 26  1  0  0  0  0
 25 61  1  0  0  0  0
 26 62  1  0  0  0  0
 27 28  1  0  0  0  0
 27 32  1  0  0  0  0
 28 29  1  0  0  0  0
 28 63  1  0  0  0  0
 29 30  1  0  0  0  0
 29 64  1  0  0  0  0
 30 31  1  0  0  0  0
 30 65  1  0  0  0  0
 31 32  1  0  0  0  0
 31 66  1  0  0  0  0
 32 67  1  0  0  0  0
 33 34  1  0  0  0  0
 33 68  1  0  0  0  0
 34 69  1  0  0  0  0
 35 72  1  0  0  0  0
 70 35  1  0  0  0  0
 71 35  1  0  0  0  0
 72 73  1  0  0  0  0
 72 88  1  0  0  0  0
 72 89  1  0  0  0  0
 73 74  1  0  0  0  0
 73 80  1  0  0  0  0
 73 90  1  0  0  0  0
 74 75  1  0  0  0  0
 74 79  1  0  0  0  0
 75 76  1  0  0  0  0
 75 91  1  0  0  0  0
 76 77  1  0  0  0  0
 76 92  1  0  0  0  0
 77 78  1  0  0  0  0
 77 93  1  0  0  0  0
 78 79  1  0  0  0  0
 78 94  1  0  0  0  0
 79 95  1  0  0  0  0
 80 81  1  0  0  0  0
 80 82  1  0  0  0  0
 80 96  1  0  0  0  0
 81 97  1  0  0  0  0
 81 98  1  0  0  0  0
 81 35  1  0  0  0  0
 82 83  1  0  0  0  0
 82 87  1  0  0  0  0
 83 84  1  0  0  0  0
 83 99  1  0  0  0  0
 84 85  1  0  0  0  0
 84100  1  0  0  0  0
 85 86  1  0  0  0  0
 85101  1  0  0  0  0
 86 87  1  0  0  0  0
 86102  1  0  0  0  0
 87103  1  0  0  0  0
104105  1  0  0  0  0
104114  1  0  0  0  0
104115  1  0  0  0  0
104116  1  0  0  0  0
105106  1  0  0  0  0
105117  1  0  0  0  0
105118  1  0  0  0  0
106107  1  0  0  0  0
106113  2  0  0  0  0
106 70  1  0  0  0  0
107108  1  0  0  0  0
107112  1  0  0  0  0
108109  1  0  0  0  0
108119  1  0  0  0  0
109110  1  0  0  0  0
109120  1  0  0  0  0
110111  1  0  0  0  0
110121  1  0  0  0  0
111112  1  0  0  0  0
111122  1  0  0  0  0
112123  1  0  0  0  0
113 88  1  0  0  0  0
M  END
