 energy: -236.420627285327 gnorm: 0.013946283560 xtb: 6.7.1 (edcfbbe)
          07072519443D

164180  0     0  0            999 V2000
    2.1131    0.6462   -2.5197 C   0  0  0  0  0  3  0  0  0  0  0  0
    2.9534    1.2288   -1.5828 C   0  0  0  0  0  3  0  0  0  0  0  0
    2.5759    1.2869   -0.2525 C   0  0  0  0  0  3  0  0  0  0  0  0
    1.3515    0.7574    0.1484 C   0  0  0  0  0  3  0  0  0  0  0  0
    0.8747    0.8944    1.9297 P   0  0  0  0  0  4  0  0  0  0  0  0
    0.8899    2.7458    1.9249 C   0  0  0  0  0  3  0  0  0  0  0  0
    0.0171    3.2425    0.9584 C   0  0  0  0  0  3  0  0  0  0  0  0
   -0.2315    4.5991    0.8332 C   0  0  0  0  0  3  0  0  0  0  0  0
    0.3956    5.4970    1.6838 C   0  0  0  0  0  3  0  0  0  0  0  0
    1.2593    5.0180    2.6560 C   0  0  0  0  0  3  0  0  0  0  0  0
    1.4979    3.6588    2.7843 C   0  0  0  0  0  3  0  0  0  0  0  0
    2.4026    0.1659    2.6476 C   0  0  0  0  0  3  0  0  0  0  0  0
    2.8122   -1.0732    2.1949 C   0  0  0  0  0  3  0  0  0  0  0  0
    2.1202   -1.7696    1.0798 C   0  0  0  0  0  3  0  0  0  0  0  0
    0.8675   -2.3301    1.2543 C   0  0  0  0  0  3  0  0  0  0  0  0
   -0.0526   -2.0306    2.8272 P   0  0  0  0  0  4  0  0  0  0  0  0
    1.1885   -2.8388    3.9285 C   0  0  0  0  0  3  0  0  0  0  0  0
    1.5525   -4.1593    3.6694 C   0  0  0  0  0  3  0  0  0  0  0  0
    2.4563   -4.8085    4.4925 C   0  0  0  0  0  3  0  0  0  0  0  0
    3.0121   -4.1422    5.5748 C   0  0  0  0  0  3  0  0  0  0  0  0
    2.6795   -2.8195    5.8192 C   0  0  0  0  0  3  0  0  0  0  0  0
    1.7750   -2.1691    4.9951 C   0  0  0  0  0  3  0  0  0  0  0  0
   -1.3900   -3.3069    2.9011 C   0  0  0  0  0  3  0  0  0  0  0  0
   -2.4458   -3.2145    1.9935 C   0  0  0  0  0  3  0  0  0  0  0  0
   -3.5613   -4.0264    2.1114 C   0  0  0  0  0  3  0  0  0  0  0  0
   -3.6594   -4.9232    3.1649 C   0  0  0  0  0  3  0  0  0  0  0  0
   -2.6368   -4.9936    4.0972 C   0  0  0  0  0  3  0  0  0  0  0  0
   -1.5129   -4.1921    3.9691 C   0  0  0  0  0  3  0  0  0  0  0  0
    0.2640   -3.0014    0.1769 C   0  0  0  0  0  3  0  0  0  0  0  0
    0.8364   -3.1094   -1.0651 C   0  0  0  0  0  3  0  0  0  0  0  0
    2.1688   -2.6315   -1.2446 C   0  0  0  0  0  3  0  0  0  0  0  0
    2.9246   -2.8217   -2.4262 C   0  0  0  0  0  3  0  0  0  0  0  0
    4.2024   -2.3501   -2.5488 C   0  0  0  0  0  3  0  0  0  0  0  0
    4.8013   -1.6435   -1.4964 C   0  0  0  0  0  3  0  0  0  0  0  0
    4.1098   -1.4494   -0.3344 C   0  0  0  0  0  3  0  0  0  0  0  0
    2.7986   -1.9556   -0.1598 C   0  0  0  0  0  3  0  0  0  0  0  0
    3.9181   -1.7189    2.8255 C   0  0  0  0  0  3  0  0  0  0  0  0
    4.2954   -3.0297    2.4474 C   0  0  0  0  0  3  0  0  0  0  0  0
    5.3221   -3.6829    3.0693 C   0  0  0  0  0  3  0  0  0  0  0  0
    6.0061   -3.0617    4.1228 C   0  0  0  0  0  3  0  0  0  0  0  0
    5.6711   -1.7936    4.5121 C   0  0  0  0  0  3  0  0  0  0  0  0
    4.6376   -1.0694    3.8706 C   0  0  0  0  0  3  0  0  0  0  0  0
    4.2334    0.2425    4.2705 C   0  0  0  0  0  3  0  0  0  0  0  0
    3.0938    0.7669    3.7183 C   0  0  0  0  0  3  0  0  0  0  0  0
    0.4997    0.2037   -0.8001 C   0  0  0  0  0  3  0  0  0  0  0  0
    0.8845    0.1384   -2.1294 C   0  0  0  0  0  3  0  0  0  0  0  0
   -1.0716    0.0473    2.8596 Ru  0  0  0  0  0  0  0  0  0  0  0  0
    4.9921    1.0456    5.3287 C   0  0  0  0  0  0  0  0  0  0  0  0
   -0.0213   -3.7958   -2.1276 C   0  0  0  0  0  0  0  0  0  0  0  0
    6.3875    0.7765    5.3042 O   0  0  0  0  0  0  0  0  0  0  0  0
    0.4659   -3.5374   -3.4365 O   0  0  0  0  0  0  0  0  0  0  0  0
   -0.0567   -5.3340   -1.8665 C   0  0  0  0  0  0  0  0  0  0  0  0
   -1.4945   -5.7599   -2.1977 C   0  0  0  0  0  0  0  0  0  0  0  0
   -2.3226   -4.5847   -1.6657 C   0  0  0  0  0  0  0  0  0  0  0  0
   -1.5057   -3.3544   -2.0583 C   0  0  0  0  0  0  0  0  0  0  0  0
    4.8023    2.5813    5.2065 C   0  0  0  0  0  0  0  0  0  0  0  0
    3.8923    2.9955    6.3716 C   0  0  0  0  0  0  0  0  0  0  0  0
    4.3167    2.0205    7.4828 C   0  0  0  0  0  0  0  0  0  0  0  0
    4.4712    0.6926    6.7401 C   0  0  0  0  0  0  0  0  0  0  0  0
    2.4187    0.5879   -3.5567 H   0  0  0  0  0  0  0  0  0  0  0  0
    3.9090    1.6351   -1.8911 H   0  0  0  0  0  0  0  0  0  0  0  0
    3.2297    1.7362    0.4849 H   0  0  0  0  0  0  0  0  0  0  0  0
   -0.4645    2.5435    0.2840 H   0  0  0  0  0  0  0  0  0  0  0  0
   -0.9128    4.9559    0.0702 H   0  0  0  0  0  0  0  0  0  0  0  0
    0.2120    6.5600    1.5915 H   0  0  0  0  0  0  0  0  0  0  0  0
    1.7559    5.7093    3.3262 H   0  0  0  0  0  0  0  0  0  0  0  0
    2.1780    3.3395    3.5626 H   0  0  0  0  0  0  0  0  0  0  0  0
    1.1171   -4.6727    2.8203 H   0  0  0  0  0  0  0  0  0  0  0  0
    2.7300   -5.8365    4.2894 H   0  0  0  0  0  0  0  0  0  0  0  0
    3.7161   -4.6516    6.2208 H   0  0  0  0  0  0  0  0  0  0  0  0
    3.1314   -2.2943    6.6515 H   0  0  0  0  0  0  0  0  0  0  0  0
    1.5378   -1.1243    5.1531 H   0  0  0  0  0  0  0  0  0  0  0  0
   -2.3948   -2.4745    1.2053 H   0  0  0  0  0  0  0  0  0  0  0  0
   -4.3643   -3.9517    1.3880 H   0  0  0  0  0  0  0  0  0  0  0  0
   -4.5349   -5.5523    3.2658 H   0  0  0  0  0  0  0  0  0  0  0  0
   -2.7151   -5.6750    4.9357 H   0  0  0  0  0  0  0  0  0  0  0  0
   -0.7260   -4.2617    4.7083 H   0  0  0  0  0  0  0  0  0  0  0  0
   -0.7000   -3.4527    0.3549 H   0  0  0  0  0  0  0  0  0  0  0  0
    2.4760   -3.3545   -3.2504 H   0  0  0  0  0  0  0  0  0  0  0  0
    4.7562   -2.5191   -3.4639 H   0  0  0  0  0  0  0  0  0  0  0  0
    5.8065   -1.2568   -1.6074 H   0  0  0  0  0  0  0  0  0  0  0  0
    4.5688   -0.9066    0.4814 H   0  0  0  0  0  0  0  0  0  0  0  0
    3.7443   -3.5204    1.6561 H   0  0  0  0  0  0  0  0  0  0  0  0
    5.5949   -4.6857    2.7652 H   0  0  0  0  0  0  0  0  0  0  0  0
    6.7965   -3.5933    4.6375 H   0  0  0  0  0  0  0  0  0  0  0  0
    6.1974   -1.3387    5.3375 H   0  0  0  0  0  0  0  0  0  0  0  0
    2.6828    1.6814    4.1193 H   0  0  0  0  0  0  0  0  0  0  0  0
   -0.4550   -0.1857   -0.4699 H   0  0  0  0  0  0  0  0  0  0  0  0
    0.2308   -0.3182   -2.8620 H   0  0  0  0  0  0  0  0  0  0  0  0
    6.7191    0.9401    4.4094 H   0  0  0  0  0  0  0  0  0  0  0  0
   -0.1094   -4.0080   -4.0568 H   0  0  0  0  0  0  0  0  0  0  0  0
    0.6952   -5.8409   -2.4751 H   0  0  0  0  0  0  0  0  0  0  0  0
    0.1571   -5.5354   -0.8148 H   0  0  0  0  0  0  0  0  0  0  0  0
   -1.6278   -5.8580   -3.2793 H   0  0  0  0  0  0  0  0  0  0  0  0
   -1.7631   -6.7105   -1.7319 H   0  0  0  0  0  0  0  0  0  0  0  0
   -3.3314   -4.5607   -2.0839 H   0  0  0  0  0  0  0  0  0  0  0  0
   -2.4064   -4.6644   -0.5781 H   0  0  0  0  0  0  0  0  0  0  0  0
   -1.8031   -3.0135   -3.0552 H   0  0  0  0  0  0  0  0  0  0  0  0
   -1.6546   -2.5144   -1.3798 H   0  0  0  0  0  0  0  0  0  0  0  0
    5.7861    3.0345    5.3567 H   0  0  0  0  0  0  0  0  0  0  0  0
    4.4368    2.8968    4.2282 H   0  0  0  0  0  0  0  0  0  0  0  0
    4.0308    4.0429    6.6520 H   0  0  0  0  0  0  0  0  0  0  0  0
    2.8394    2.8357    6.1256 H   0  0  0  0  0  0  0  0  0  0  0  0
    5.2783    2.3326    7.8964 H   0  0  0  0  0  0  0  0  0  0  0  0
    3.5853    1.9610    8.2936 H   0  0  0  0  0  0  0  0  0  0  0  0
    5.1746    0.0179    7.2338 H   0  0  0  0  0  0  0  0  0  0  0  0
    3.5051    0.1927    6.6569 H   0  0  0  0  0  0  0  0  0  0  0  0
   -0.6609    0.5114    4.4957 H   0  0  0  0  0  0  0  0  0  0  0  0
   -1.6772   -0.2613    1.4179 H   0  0  0  0  0  0  0  0  0  0  0  0
   -2.1525    1.8933    2.8250 N   0  0  0  0  0  4  0  0  0  0  0  0
   -3.5801    1.5473    2.7673 C   0  0  0  0  0  0  0  0  0  0  0  0
   -4.5083    2.7284    2.9254 C   0  0  0  0  0  3  0  0  0  0  0  0
   -5.5630    2.9040    2.0355 C   0  0  0  0  0  3  0  0  0  0  0  0
   -6.4461    3.9607    2.1880 C   0  0  0  0  0  3  0  0  0  0  0  0
   -6.2807    4.8568    3.2323 C   0  0  0  0  0  3  0  0  0  0  0  0
   -5.2332    4.6867    4.1244 C   0  0  0  0  0  3  0  0  0  0  0  0
   -4.3526    3.6276    3.9766 C   0  0  0  0  0  3  0  0  0  0  0  0
   -3.8329    0.5211    3.8892 C   0  0  0  0  0  0  0  0  0  0  0  0
   -2.9243   -0.6151    3.6837 N   0  0  0  0  0  4  0  0  0  0  0  0
   -5.2806    0.0970    3.9576 C   0  0  0  0  0  3  0  0  0  0  0  0
   -5.8602   -0.6469    2.9330 C   0  0  0  0  0  3  0  0  0  0  0  0
   -7.1895   -1.0282    3.0083 C   0  0  0  0  0  3  0  0  0  0  0  0
   -7.9541   -0.6697    4.1074 C   0  0  0  0  0  3  0  0  0  0  0  0
   -7.3844    0.0698    5.1320 C   0  0  0  0  0  3  0  0  0  0  0  0
   -6.0542    0.4504    5.0582 C   0  0  0  0  0  3  0  0  0  0  0  0
   -1.9260    2.5507    2.0848 H   0  0  0  0  0  0  0  0  0  0  0  0
   -1.9807    2.3648    3.7215 H   0  0  0  0  0  0  0  0  0  0  0  0
   -3.7664    1.0705    1.7961 H   0  0  0  0  0  0  0  0  0  0  0  0
   -5.6972    2.2037    1.2195 H   0  0  0  0  0  0  0  0  0  0  0  0
   -7.2647    4.0838    1.4895 H   0  0  0  0  0  0  0  0  0  0  0  0
   -6.9690    5.6841    3.3520 H   0  0  0  0  0  0  0  0  0  0  0  0
   -5.1033    5.3823    4.9445 H   0  0  0  0  0  0  0  0  0  0  0  0
   -3.5504    3.4938    4.6921 H   0  0  0  0  0  0  0  0  0  0  0  0
   -3.5615    1.0124    4.8327 H   0  0  0  0  0  0  0  0  0  0  0  0
   -2.7931   -1.1042    4.5656 H   0  0  0  0  0  0  0  0  0  0  0  0
   -3.3553   -1.2759    3.0412 H   0  0  0  0  0  0  0  0  0  0  0  0
   -5.2752   -0.9267    2.0653 H   0  0  0  0  0  0  0  0  0  0  0  0
   -7.6312   -1.6057    2.2054 H   0  0  0  0  0  0  0  0  0  0  0  0
   -8.9933   -0.9682    4.1649 H   0  0  0  0  0  0  0  0  0  0  0  0
   -7.9762    0.3504    5.9941 H   0  0  0  0  0  0  0  0  0  0  0  0
   -5.6072    1.0251    5.8613 H   0  0  0  0  0  0  0  0  0  0  0  0
    0.1792    1.6654    6.4357 C   0  0  0  0  0  0  0  0  0  0  0  0
   -1.1988    1.2382    5.9605 C   0  0  0  0  0  0  0  0  0  0  0  0
   -1.7294    0.0153    6.6907 C   0  0  0  0  0  3  0  0  0  0  0  0
   -2.7851    0.1887    7.6367 C   0  0  0  0  0  3  0  0  0  0  0  0
   -3.3785    1.4389    7.9349 C   0  0  0  0  0  3  0  0  0  0  0  0
   -4.4204    1.5462    8.8175 C   0  0  0  0  0  3  0  0  0  0  0  0
   -4.9218    0.4058    9.4764 C   0  0  0  0  0  3  0  0  0  0  0  0
   -4.3542   -0.8138    9.2421 C   0  0  0  0  0  3  0  0  0  0  0  0
   -3.2828   -0.9612    8.3262 C   0  0  0  0  0  3  0  0  0  0  0  0
   -2.7105   -2.2209    8.0947 C   0  0  0  0  0  3  0  0  0  0  0  0
   -1.6844   -2.3566    7.1859 C   0  0  0  0  0  3  0  0  0  0  0  0
   -1.2216   -1.2330    6.4852 C   0  0  0  0  0  3  0  0  0  0  0  0
   -2.0424    2.1121    5.6207 O   0  0  0  0  0  0  0  0  0  0  0  0
    0.8666    0.8388    6.4437 H   0  0  0  0  0  0  0  0  0  0  0  0
    0.0727    2.0436    7.4374 H   0  0  0  0  0  0  0  0  0  0  0  0
    0.5477    2.4513    5.8023 H   0  0  0  0  0  0  0  0  0  0  0  0
   -3.0132    2.3185    7.4439 H   0  0  0  0  0  0  0  0  0  0  0  0
   -4.8610    2.5046    9.0137 H   0  0  0  0  0  0  0  0  0  0  0  0
   -5.7376    0.5079   10.1654 H   0  0  0  0  0  0  0  0  0  0  0  0
   -4.7107   -1.6902    9.7473 H   0  0  0  0  0  0  0  0  0  0  0  0
   -3.0852   -3.0725    8.6282 H   0  0  0  0  0  0  0  0  0  0  0  0
   -1.2358   -3.3139    7.0029 H   0  0  0  0  0  0  0  0  0  0  0  0
   -0.4627   -1.3808    5.7419 H   0  0  0  0  0  0  0  0  0  0  0  0
  1  2  1  0  0  0  0
  1 46  1  0  0  0  0
  1 60  1  0  0  0  0
  2  3  1  0  0  0  0
  2 61  1  0  0  0  0
  3  4  1  0  0  0  0
  3 62  1  0  0  0  0
  4  5  1  0  0  0  0
  4 45  1  0  0  0  0
  5  6  1  0  0  0  0
  5 12  1  0  0  0  0
  5 47  1  0  0  0  0
  6  7  1  0  0  0  0
  6 11  1  0  0  0  0
  7  8  1  0  0  0  0
  7 63  1  0  0  0  0
  8  9  1  0  0  0  0
  8 64  1  0  0  0  0
  9 10  1  0  0  0  0
  9 65  1  0  0  0  0
 10 11  1  0  0  0  0
 10 66  1  0  0  0  0
 11 67  1  0  0  0  0
 12 13  1  0  0  0  0
 12 44  1  0  0  0  0
 13 14  1  0  0  0  0
 13 37  1  0  0  0  0
 14 15  1  0  0  0  0
 14 36  1  0  0  0  0
 15 16  1  0  0  0  0
 15 29  1  0  0  0  0
 16 17  1  0  0  0  0
 16 23  1  0  0  0  0
 17 18  1  0  0  0  0
 17 22  1  0  0  0  0
 18 19  1  0  0  0  0
 18 68  1  0  0  0  0
 19 20  1  0  0  0  0
 19 69  1  0  0  0  0
 20 21  1  0  0  0  0
 20 70  1  0  0  0  0
 21 22  1  0  0  0  0
 21 71  1  0  0  0  0
 22 72  1  0  0  0  0
 23 24  1  0  0  0  0
 23 28  1  0  0  0  0
 24 25  1  0  0  0  0
 24 73  1  0  0  0  0
 25 26  1  0  0  0  0
 25 74  1  0  0  0  0
 26 27  1  0  0  0  0
 26 75  1  0  0  0  0
 27 28  1  0  0  0  0
 27 76  1  0  0  0  0
 28 77  1  0  0  0  0
 29 30  1  0  0  0  0
 29 78  1  0  0  0  0
 30 31  1  0  0  0  0
 30 49  1  0  0  0  0
 31 32  1  0  0  0  0
 31 36  1  0  0  0  0
 32 33  1  0  0  0  0
 32 79  1  0  0  0  0
 33 34  1  0  0  0  0
 33 80  1  0  0  0  0
 34 35  1  0  0  0  0
 34 81  1  0  0  0  0
 35 36  1  0  0  0  0
 35 82  1  0  0  0  0
 37 38  1  0  0  0  0
 37 42  1  0  0  0  0
 38 39  1  0  0  0  0
 38 83  1  0  0  0  0
 39 40  1  0  0  0  0
 39 84  1  0  0  0  0
 40 41  1  0  0  0  0
 40 85  1  0  0  0  0
 41 42  1  0  0  0  0
 41 86  1  0  0  0  0
 42 43  1  0  0  0  0
 43 44  1  0  0  0  0
 43 48  1  0  0  0  0
 44 87  1  0  0  0  0
 45 46  1  0  0  0  0
 45 88  1  0  0  0  0
 46 89  1  0  0  0  0
 47 16  1  0  0  0  0
 47110  1  0  0  0  0
 48 50  1  0  0  0  0
 48 56  1  0  0  0  0
 49 51  1  0  0  0  0
 49 52  1  0  0  0  0
 50 90  1  0  0  0  0
 51 91  1  0  0  0  0
 52 53  1  0  0  0  0
 52 92  1  0  0  0  0
 52 93  1  0  0  0  0
 53 54  1  0  0  0  0
 53 94  1  0  0  0  0
 53 95  1  0  0  0  0
 54 55  1  0  0  0  0
 54 96  1  0  0  0  0
 54 97  1  0  0  0  0
 55 49  1  0  0  0  0
 55 98  1  0  0  0  0
 55 99  1  0  0  0  0
 56 57  1  0  0  0  0
 56100  1  0  0  0  0
 56101  1  0  0  0  0
 57 58  1  0  0  0  0
 57102  1  0  0  0  0
 57103  1  0  0  0  0
 58 59  1  0  0  0  0
 58104  1  0  0  0  0
 58105  1  0  0  0  0
 59 48  1  0  0  0  0
 59106  1  0  0  0  0
 59107  1  0  0  0  0
108 47  1  0  0  0  0
109 47  1  0  0  0  0
110111  1  0  0  0  0
110126  1  0  0  0  0
110127  1  0  0  0  0
111112  1  0  0  0  0
111118  1  0  0  0  0
111128  1  0  0  0  0
112113  1  0  0  0  0
112117  1  0  0  0  0
113114  1  0  0  0  0
113129  1  0  0  0  0
114115  1  0  0  0  0
114130  1  0  0  0  0
115116  1  0  0  0  0
115131  1  0  0  0  0
116117  1  0  0  0  0
116132  1  0  0  0  0
117133  1  0  0  0  0
118119  1  0  0  0  0
118120  1  0  0  0  0
118134  1  0  0  0  0
119135  1  0  0  0  0
119136  1  0  0  0  0
119 47  1  0  0  0  0
120121  1  0  0  0  0
120125  1  0  0  0  0
121122  1  0  0  0  0
121137  1  0  0  0  0
122123  1  0  0  0  0
122138  1  0  0  0  0
123124  1  0  0  0  0
123139  1  0  0  0  0
124125  1  0  0  0  0
124140  1  0  0  0  0
125141  1  0  0  0  0
142143  1  0  0  0  0
142155  1  0  0  0  0
142156  1  0  0  0  0
142157  1  0  0  0  0
143144  1  0  0  0  0
143154  2  0  0  0  0
143108  1  0  0  0  0
144145  1  0  0  0  0
144153  1  0  0  0  0
145146  1  0  0  0  0
145150  1  0  0  0  0
146147  1  0  0  0  0
146158  1  0  0  0  0
147148  1  0  0  0  0
147159  1  0  0  0  0
148149  1  0  0  0  0
148160  1  0  0  0  0
149150  1  0  0  0  0
149161  1  0  0  0  0
150151  1  0  0  0  0
151152  1  0  0  0  0
151162  1  0  0  0  0
152153  1  0  0  0  0
152163  1  0  0  0  0
153164  1  0  0  0  0
154127  1  0  0  0  0
M  END
