 energy: -216.186204761235 gnorm: 0.000851146968 xtb: 6.7.1 (edcfbbe)
          07072515403D

150163  0     0  0            999 V2000
    5.2545   -1.7764    3.0320 C   0  0  0  0  0  3  0  0  0  0  0  0
    4.2101   -1.9547    3.9254 C   0  0  0  0  0  3  0  0  0  0  0  0
    3.0322   -1.2440    3.7625 C   0  0  0  0  0  3  0  0  0  0  0  0
    2.8896   -0.3644    2.6967 C   0  0  0  0  0  3  0  0  0  0  0  0
    1.3080    0.5725    2.5135 P   0  0  0  0  0  4  0  0  0  0  0  0
    2.0898    2.2353    2.3296 C   0  0  0  0  0  3  0  0  0  0  0  0
    2.4506    2.8840    1.1517 C   0  0  0  0  0  3  0  0  0  0  0  0
    2.9919    4.1588    1.1997 C   0  0  0  0  0  3  0  0  0  0  0  0
    3.1954    4.7955    2.4141 C   0  0  0  0  0  3  0  0  0  0  0  0
    2.8833    4.1393    3.5948 C   0  0  0  0  0  3  0  0  0  0  0  0
    2.3380    2.8672    3.5458 C   0  0  0  0  0  3  0  0  0  0  0  0
    0.8065    0.1018    0.8113 C   0  0  0  0  0  3  0  0  0  0  0  0
    0.7979   -1.2244    0.4188 C   0  0  0  0  0  3  0  0  0  0  0  0
    1.2653   -2.2918    1.3422 C   0  0  0  0  0  3  0  0  0  0  0  0
    0.5130   -2.6336    2.4556 C   0  0  0  0  0  3  0  0  0  0  0  0
   -0.9605   -1.6043    2.8923 P   0  0  0  0  0  4  0  0  0  0  0  0
   -1.8956   -1.8774    1.3236 C   0  0  0  0  0  3  0  0  0  0  0  0
   -2.5853   -0.8498    0.6939 C   0  0  0  0  0  3  0  0  0  0  0  0
   -3.2961   -1.0941   -0.4705 C   0  0  0  0  0  3  0  0  0  0  0  0
   -3.3362   -2.3711   -1.0060 C   0  0  0  0  0  3  0  0  0  0  0  0
   -2.6642   -3.4066   -0.3728 C   0  0  0  0  0  3  0  0  0  0  0  0
   -1.9461   -3.1625    0.7849 C   0  0  0  0  0  3  0  0  0  0  0  0
   -1.9642   -2.6870    3.9952 C   0  0  0  0  0  3  0  0  0  0  0  0
   -1.4776   -2.9091    5.2834 C   0  0  0  0  0  3  0  0  0  0  0  0
   -2.1963   -3.6730    6.1861 C   0  0  0  0  0  3  0  0  0  0  0  0
   -3.4345   -4.1871    5.8304 C   0  0  0  0  0  3  0  0  0  0  0  0
   -3.9511   -3.9225    4.5724 C   0  0  0  0  0  3  0  0  0  0  0  0
   -3.2224   -3.1778    3.6576 C   0  0  0  0  0  3  0  0  0  0  0  0
    0.9341   -3.6981    3.2784 C   0  0  0  0  0  3  0  0  0  0  0  0
    2.0742   -4.3983    3.0017 C   0  0  0  0  0  3  0  0  0  0  0  0
    2.8755   -4.0656    1.8879 C   0  0  0  0  0  3  0  0  0  0  0  0
    4.0718   -4.7580    1.5940 C   0  0  0  0  0  3  0  0  0  0  0  0
    4.8331   -4.4128    0.5116 C   0  0  0  0  0  3  0  0  0  0  0  0
    4.4320   -3.3556   -0.3222 C   0  0  0  0  0  3  0  0  0  0  0  0
    3.2803   -2.6650   -0.0633 C   0  0  0  0  0  3  0  0  0  0  0  0
    2.4629   -3.0038    1.0414 C   0  0  0  0  0  3  0  0  0  0  0  0
    0.3103   -1.5762   -0.8763 C   0  0  0  0  0  3  0  0  0  0  0  0
    0.3233   -2.9070   -1.3569 C   0  0  0  0  0  3  0  0  0  0  0  0
   -0.1425   -3.2095   -2.6072 C   0  0  0  0  0  3  0  0  0  0  0  0
   -0.6681   -2.2048   -3.4356 C   0  0  0  0  0  3  0  0  0  0  0  0
   -0.7183   -0.9120   -2.9914 C   0  0  0  0  0  3  0  0  0  0  0  0
   -0.2340   -0.5649   -1.7110 C   0  0  0  0  0  3  0  0  0  0  0  0
   -0.3110    0.7603   -1.2269 C   0  0  0  0  0  3  0  0  0  0  0  0
    0.1936    1.0815   -0.0012 C   0  0  0  0  0  3  0  0  0  0  0  0
    3.9432   -0.1809    1.8052 C   0  0  0  0  0  3  0  0  0  0  0  0
    5.1212   -0.8877    1.9756 C   0  0  0  0  0  3  0  0  0  0  0  0
   -0.6271    0.5125    3.7678 Ru  0  0  0  0  0  0  0  0  0  0  0  0
    6.1750   -2.3331    3.1551 H   0  0  0  0  0  0  0  0  0  0  0  0
    4.3093   -2.6551    4.7455 H   0  0  0  0  0  0  0  0  0  0  0  0
    2.1956   -1.3766    4.4376 H   0  0  0  0  0  0  0  0  0  0  0  0
    2.3161    2.3966    0.1947 H   0  0  0  0  0  0  0  0  0  0  0  0
    3.2639    4.6601    0.2788 H   0  0  0  0  0  0  0  0  0  0  0  0
    3.6106    5.7952    2.4403 H   0  0  0  0  0  0  0  0  0  0  0  0
    3.0681    4.6206    4.5477 H   0  0  0  0  0  0  0  0  0  0  0  0
    2.1146    2.3222    4.4557 H   0  0  0  0  0  0  0  0  0  0  0  0
   -2.5368    0.1465    1.1135 H   0  0  0  0  0  0  0  0  0  0  0  0
   -3.8192   -0.2835   -0.9626 H   0  0  0  0  0  0  0  0  0  0  0  0
   -3.8898   -2.5629   -1.9167 H   0  0  0  0  0  0  0  0  0  0  0  0
   -2.6983   -4.4072   -0.7856 H   0  0  0  0  0  0  0  0  0  0  0  0
   -1.4205   -3.9705    1.2802 H   0  0  0  0  0  0  0  0  0  0  0  0
   -0.5359   -2.4617    5.5753 H   0  0  0  0  0  0  0  0  0  0  0  0
   -1.7930   -3.8633    7.1729 H   0  0  0  0  0  0  0  0  0  0  0  0
   -4.0010   -4.7807    6.5370 H   0  0  0  0  0  0  0  0  0  0  0  0
   -4.9280   -4.3004    4.2962 H   0  0  0  0  0  0  0  0  0  0  0  0
   -3.6407   -2.9834    2.6784 H   0  0  0  0  0  0  0  0  0  0  0  0
    0.3317   -3.9721    4.1338 H   0  0  0  0  0  0  0  0  0  0  0  0
    2.3791   -5.2204    3.6376 H   0  0  0  0  0  0  0  0  0  0  0  0
    4.3746   -5.5668    2.2480 H   0  0  0  0  0  0  0  0  0  0  0  0
    5.7490   -4.9472    0.2917 H   0  0  0  0  0  0  0  0  0  0  0  0
    5.0470   -3.0874   -1.1722 H   0  0  0  0  0  0  0  0  0  0  0  0
    2.9793   -1.8460   -0.7038 H   0  0  0  0  0  0  0  0  0  0  0  0
    0.7168   -3.6908   -0.7230 H   0  0  0  0  0  0  0  0  0  0  0  0
   -0.1149   -4.2317   -2.9635 H   0  0  0  0  0  0  0  0  0  0  0  0
   -1.0369   -2.4625   -4.4206 H   0  0  0  0  0  0  0  0  0  0  0  0
   -1.1318   -0.1290   -3.6156 H   0  0  0  0  0  0  0  0  0  0  0  0
   -0.7910    1.5132   -1.8401 H   0  0  0  0  0  0  0  0  0  0  0  0
    0.0886    2.0837    0.3945 H   0  0  0  0  0  0  0  0  0  0  0  0
    3.8336    0.5075    0.9761 H   0  0  0  0  0  0  0  0  0  0  0  0
    5.9387   -0.7502    1.2786 H   0  0  0  0  0  0  0  0  0  0  0  0
    0.0729    0.1271    5.3246 H   0  0  0  0  0  0  0  0  0  0  0  0
   -1.3111    1.0733    2.4468 H   0  0  0  0  0  0  0  0  0  0  0  0
   -0.6681    4.9254   -1.8808 C   0  0  0  0  0  0  0  0  0  0  0  0
   -1.7910    4.2558   -1.3441 O   0  0  0  0  0  0  0  0  0  0  0  0
   -1.8367    4.0562    0.0030 C   0  0  0  0  0  3  0  0  0  0  0  0
   -0.9050    4.5424    0.9182 C   0  0  0  0  0  3  0  0  0  0  0  0
   -1.0365    4.2399    2.2613 C   0  0  0  0  0  3  0  0  0  0  0  0
   -2.0674    3.4340    2.7435 C   0  0  0  0  0  3  0  0  0  0  0  0
   -2.0592    3.1215    4.2361 C   0  0  0  0  0  0  0  0  0  0  0  0
   -0.7401    2.5070    4.5448 N   0  0  0  0  0  4  0  0  0  0  0  0
   -2.2379    4.4689    4.9226 C   0  0  0  0  0  3  0  0  0  0  0  0
   -3.3607    5.2344    4.6016 C   0  0  0  0  0  3  0  0  0  0  0  0
   -3.5759    6.4667    5.1822 C   0  0  0  0  0  3  0  0  0  0  0  0
   -2.6640    6.9839    6.1054 C   0  0  0  0  0  3  0  0  0  0  0  0
   -2.9689    8.2057    6.6270 O   0  0  0  0  0  0  0  0  0  0  0  0
   -2.0879    8.7711    7.5761 C   0  0  0  0  0  0  0  0  0  0  0  0
   -1.5313    6.2378    6.4178 C   0  0  0  0  0  3  0  0  0  0  0  0
   -1.3270    4.9993    5.8282 C   0  0  0  0  0  3  0  0  0  0  0  0
   -3.1095    2.0884    4.7245 C   0  0  0  0  0  0  0  0  0  0  0  0
   -3.6323    2.3666    6.1334 C   0  0  0  0  0  0  0  0  0  0  0  0
   -2.5303    0.7365    4.7035 N   0  0  0  0  0  4  0  0  0  0  0  0
   -3.0260    3.0102    1.8276 C   0  0  0  0  0  3  0  0  0  0  0  0
   -2.9133    3.3097    0.4831 C   0  0  0  0  0  3  0  0  0  0  0  0
   -0.8091    4.9165   -2.9626 H   0  0  0  0  0  0  0  0  0  0  0  0
    0.2629    4.4050   -1.6296 H   0  0  0  0  0  0  0  0  0  0  0  0
   -0.6141    5.9627   -1.5320 H   0  0  0  0  0  0  0  0  0  0  0  0
   -0.0677    5.1485    0.6021 H   0  0  0  0  0  0  0  0  0  0  0  0
   -0.2987    4.6535    2.9389 H   0  0  0  0  0  0  0  0  0  0  0  0
    0.0013    3.1220    4.2229 H   0  0  0  0  0  0  0  0  0  0  0  0
   -0.6808    2.4170    5.5540 H   0  0  0  0  0  0  0  0  0  0  0  0
   -4.0738    4.8530    3.8817 H   0  0  0  0  0  0  0  0  0  0  0  0
   -4.4484    7.0556    4.9345 H   0  0  0  0  0  0  0  0  0  0  0  0
   -2.5349    9.7252    7.8593 H   0  0  0  0  0  0  0  0  0  0  0  0
   -1.0960    8.9487    7.1461 H   0  0  0  0  0  0  0  0  0  0  0  0
   -1.9952    8.1359    8.4642 H   0  0  0  0  0  0  0  0  0  0  0  0
   -0.7963    6.6071    7.1191 H   0  0  0  0  0  0  0  0  0  0  0  0
   -0.4280    4.4639    6.1000 H   0  0  0  0  0  0  0  0  0  0  0  0
   -3.9664    2.1195    4.0436 H   0  0  0  0  0  0  0  0  0  0  0  0
   -4.0846    3.3536    6.2151 H   0  0  0  0  0  0  0  0  0  0  0  0
   -2.8312    2.2826    6.8665 H   0  0  0  0  0  0  0  0  0  0  0  0
   -4.3879    1.6232    6.3869 H   0  0  0  0  0  0  0  0  0  0  0  0
   -2.3600    0.4356    5.6716 H   0  0  0  0  0  0  0  0  0  0  0  0
   -3.1920    0.0713    4.3134 H   0  0  0  0  0  0  0  0  0  0  0  0
   -3.8669    2.4036    2.1337 H   0  0  0  0  0  0  0  0  0  0  0  0
   -3.6480    2.9509   -0.2248 H   0  0  0  0  0  0  0  0  0  0  0  0
   -1.2976    0.1553    7.2419 O   0  0  0  0  0  0  0  0  0  0  0  0
   -0.0551    0.2284    7.0407 C   0  0  0  0  0  0  0  0  0  0  0  0
    0.7176    1.4985    7.3827 C   0  0  0  0  0  0  0  0  0  0  0  0
   -0.0565    2.4170    8.3194 C   0  0  0  0  0  0  0  0  0  0  0  0
   -0.3937    1.7748    9.6586 C   0  0  0  0  0  0  0  0  0  0  0  0
    0.8302    1.3931   10.4779 C   0  0  0  0  0  0  0  0  0  0  0  0
    0.7779   -1.0057    7.3301 C   0  0  0  0  0  3  0  0  0  0  0  0
    0.1683   -2.0175    8.0548 C   0  0  0  0  0  3  0  0  0  0  0  0
    0.9131   -3.1475    8.4348 C   0  0  0  0  0  3  0  0  0  0  0  0
    2.2091   -3.2340    8.0974 C   0  0  0  0  0  3  0  0  0  0  0  0
    2.8099   -2.2223    7.3872 C   0  0  0  0  0  3  0  0  0  0  0  0
    2.0847   -1.1124    7.0120 C   0  0  0  0  0  3  0  0  0  0  0  0
    1.6295    1.2073    7.8748 H   0  0  0  0  0  0  0  0  0  0  0  0
    1.0155    2.0461    6.5052 H   0  0  0  0  0  0  0  0  0  0  0  0
    0.5322    3.3027    8.4902 H   0  0  0  0  0  0  0  0  0  0  0  0
   -0.9828    2.7178    7.8607 H   0  0  0  0  0  0  0  0  0  0  0  0
   -0.9887    2.4724   10.2237 H   0  0  0  0  0  0  0  0  0  0  0  0
   -0.9929    0.8987    9.4795 H   0  0  0  0  0  0  0  0  0  0  0  0
    1.4886    2.2358   10.5921 H   0  0  0  0  0  0  0  0  0  0  0  0
    0.5266    1.0644   11.4558 H   0  0  0  0  0  0  0  0  0  0  0  0
    1.3729    0.5894   10.0132 H   0  0  0  0  0  0  0  0  0  0  0  0
   -0.8639   -1.9134    8.3246 H   0  0  0  0  0  0  0  0  0  0  0  0
    0.4312   -3.9218    9.0000 H   0  0  0  0  0  0  0  0  0  0  0  0
    2.7893   -4.0897    8.3854 H   0  0  0  0  0  0  0  0  0  0  0  0
    3.8499   -2.2870    7.1321 H   0  0  0  0  0  0  0  0  0  0  0  0
    2.5757   -0.3374    6.4557 H   0  0  0  0  0  0  0  0  0  0  0  0
  1  2  1  0  0  0  0
  1 46  1  0  0  0  0
  1 48  1  0  0  0  0
  2  3  1  0  0  0  0
  2 49  1  0  0  0  0
  3  4  1  0  0  0  0
  3 50  1  0  0  0  0
  4  5  1  0  0  0  0
  4 45  1  0  0  0  0
  5  6  1  0  0  0  0
  5 12  1  0  0  0  0
  5 47  1  0  0  0  0
  6  7  1  0  0  0  0
  6 11  1  0  0  0  0
  7  8  1  0  0  0  0
  7 51  1  0  0  0  0
  8  9  1  0  0  0  0
  8 52  1  0  0  0  0
  9 10  1  0  0  0  0
  9 53  1  0  0  0  0
 10 11  1  0  0  0  0
 10 54  1  0  0  0  0
 11 55  1  0  0  0  0
 12 13  1  0  0  0  0
 12 44  1  0  0  0  0
 13 14  1  0  0  0  0
 13 37  1  0  0  0  0
 14 15  1  0  0  0  0
 14 36  1  0  0  0  0
 15 16  1  0  0  0  0
 15 29  1  0  0  0  0
 16 17  1  0  0  0  0
 16 23  1  0  0  0  0
 17 18  1  0  0  0  0
 17 22  1  0  0  0  0
 18 19  1  0  0  0  0
 18 56  1  0  0  0  0
 19 20  1  0  0  0  0
 19 57  1  0  0  0  0
 20 21  1  0  0  0  0
 20 58  1  0  0  0  0
 21 22  1  0  0  0  0
 21 59  1  0  0  0  0
 22 60  1  0  0  0  0
 23 24  1  0  0  0  0
 23 28  1  0  0  0  0
 24 25  1  0  0  0  0
 24 61  1  0  0  0  0
 25 26  1  0  0  0  0
 25 62  1  0  0  0  0
 26 27  1  0  0  0  0
 26 63  1  0  0  0  0
 27 28  1  0  0  0  0
 27 64  1  0  0  0  0
 28 65  1  0  0  0  0
 29 30  1  0  0  0  0
 29 66  1  0  0  0  0
 30 31  1  0  0  0  0
 30 67  1  0  0  0  0
 31 32  1  0  0  0  0
 31 36  1  0  0  0  0
 32 33  1  0  0  0  0
 32 68  1  0  0  0  0
 33 34  1  0  0  0  0
 33 69  1  0  0  0  0
 34 35  1  0  0  0  0
 34 70  1  0  0  0  0
 35 36  1  0  0  0  0
 35 71  1  0  0  0  0
 37 38  1  0  0  0  0
 37 42  1  0  0  0  0
 38 39  1  0  0  0  0
 38 72  1  0  0  0  0
 39 40  1  0  0  0  0
 39 73  1  0  0  0  0
 40 41  1  0  0  0  0
 40 74  1  0  0  0  0
 41 42  1  0  0  0  0
 41 75  1  0  0  0  0
 42 43  1  0  0  0  0
 43 44  1  0  0  0  0
 43 76  1  0  0  0  0
 44 77  1  0  0  0  0
 45 46  1  0  0  0  0
 45 78  1  0  0  0  0
 46 79  1  0  0  0  0
 47 16  1  0  0  0  0
 47100  1  0  0  0  0
 80 47  1  0  0  0  0
 81 47  1  0  0  0  0
 82 83  1  0  0  0  0
 82103  1  0  0  0  0
 82104  1  0  0  0  0
 82105  1  0  0  0  0
 83 84  1  0  0  0  0
 84 85  1  0  0  0  0
 84102  1  0  0  0  0
 85 86  1  0  0  0  0
 85106  1  0  0  0  0
 86 87  1  0  0  0  0
 86107  1  0  0  0  0
 87 88  1  0  0  0  0
 87101  1  0  0  0  0
 88 89  1  0  0  0  0
 88 90  1  0  0  0  0
 88 98  1  0  0  0  0
 89108  1  0  0  0  0
 89109  1  0  0  0  0
 89 47  1  0  0  0  0
 90 91  1  0  0  0  0
 90 97  1  0  0  0  0
 91 92  1  0  0  0  0
 91110  1  0  0  0  0
 92 93  1  0  0  0  0
 92111  1  0  0  0  0
 93 94  1  0  0  0  0
 93 96  1  0  0  0  0
 94 95  1  0  0  0  0
 95112  1  0  0  0  0
 95113  1  0  0  0  0
 95114  1  0  0  0  0
 96 97  1  0  0  0  0
 96115  1  0  0  0  0
 97116  1  0  0  0  0
 98 99  1  0  0  0  0
 98100  1  0  0  0  0
 98117  1  0  0  0  0
 99118  1  0  0  0  0
 99119  1  0  0  0  0
 99120  1  0  0  0  0
100121  1  0  0  0  0
100122  1  0  0  0  0
101102  1  0  0  0  0
101123  1  0  0  0  0
102124  1  0  0  0  0
125126  2  0  0  0  0
125121  1  0  0  0  0
126127  1  0  0  0  0
126131  1  0  0  0  0
126 80  1  0  0  0  0
127128  1  0  0  0  0
127137  1  0  0  0  0
127138  1  0  0  0  0
128129  1  0  0  0  0
128139  1  0  0  0  0
128140  1  0  0  0  0
129130  1  0  0  0  0
129141  1  0  0  0  0
129142  1  0  0  0  0
130143  1  0  0  0  0
130144  1  0  0  0  0
130145  1  0  0  0  0
131132  1  0  0  0  0
131136  1  0  0  0  0
132133  1  0  0  0  0
132146  1  0  0  0  0
133134  1  0  0  0  0
133147  1  0  0  0  0
134135  1  0  0  0  0
134148  1  0  0  0  0
135136  1  0  0  0  0
135149  1  0  0  0  0
136150  1  0  0  0  0
M  END
