 energy: -196.313530011250 gnorm: 0.000985485691 xtb: 6.7.1 (edcfbbe)
          07072519533D

134147  0     0  0            999 V2000
    2.9902   -1.0694   -2.0672 C   0  0  0  0  0  3  0  0  0  0  0  0
    1.6362   -0.9499   -1.7974 C   0  0  0  0  0  3  0  0  0  0  0  0
    1.2118   -0.5108   -0.5537 C   0  0  0  0  0  3  0  0  0  0  0  0
    2.1398   -0.2063    0.4344 C   0  0  0  0  0  3  0  0  0  0  0  0
    1.6069    0.3897    2.0952 P   0  0  0  0  0  4  0  0  0  0  0  0
    2.3989    2.0549    2.0852 C   0  0  0  0  0  3  0  0  0  0  0  0
    3.0425    2.6353    0.9959 C   0  0  0  0  0  3  0  0  0  0  0  0
    3.5154    3.9359    1.0781 C   0  0  0  0  0  3  0  0  0  0  0  0
    3.3463    4.6778    2.2362 C   0  0  0  0  0  3  0  0  0  0  0  0
    2.6808    4.1194    3.3171 C   0  0  0  0  0  3  0  0  0  0  0  0
    2.2033    2.8227    3.2341 C   0  0  0  0  0  3  0  0  0  0  0  0
    2.7389   -0.6601    3.1029 C   0  0  0  0  0  3  0  0  0  0  0  0
    2.6634   -2.0387    2.9730 C   0  0  0  0  0  3  0  0  0  0  0  0
    1.8539   -2.6900    1.9065 C   0  0  0  0  0  3  0  0  0  0  0  0
    0.4714   -2.7639    1.9701 C   0  0  0  0  0  3  0  0  0  0  0  0
   -0.3928   -1.8329    3.3060 P   0  0  0  0  0  4  0  0  0  0  0  0
   -2.1070   -2.5014    3.4289 C   0  0  0  0  0  3  0  0  0  0  0  0
   -2.6237   -2.9184    4.6529 C   0  0  0  0  0  3  0  0  0  0  0  0
   -3.9755   -3.1902    4.7939 C   0  0  0  0  0  3  0  0  0  0  0  0
   -4.8338   -3.0457    3.7157 C   0  0  0  0  0  3  0  0  0  0  0  0
   -4.3356   -2.6067    2.4979 C   0  0  0  0  0  3  0  0  0  0  0  0
   -2.9884   -2.3176    2.3616 C   0  0  0  0  0  3  0  0  0  0  0  0
    0.3885   -2.7346    4.7110 C   0  0  0  0  0  3  0  0  0  0  0  0
    1.1278   -2.0512    5.6671 C   0  0  0  0  0  3  0  0  0  0  0  0
    1.7161   -2.7346    6.7191 C   0  0  0  0  0  3  0  0  0  0  0  0
    1.5754   -4.1098    6.8123 C   0  0  0  0  0  3  0  0  0  0  0  0
    0.8591   -4.8025    5.8473 C   0  0  0  0  0  3  0  0  0  0  0  0
    0.2695   -4.1208    4.7965 C   0  0  0  0  0  3  0  0  0  0  0  0
   -0.2376   -3.4659    0.9745 C   0  0  0  0  0  3  0  0  0  0  0  0
    0.4094   -4.0479   -0.0775 C   0  0  0  0  0  3  0  0  0  0  0  0
    1.8157   -3.9832   -0.1850 C   0  0  0  0  0  3  0  0  0  0  0  0
    2.5050   -4.5806   -1.2644 C   0  0  0  0  0  3  0  0  0  0  0  0
    3.8704   -4.5448   -1.3300 C   0  0  0  0  0  3  0  0  0  0  0  0
    4.6034   -3.9050   -0.3170 C   0  0  0  0  0  3  0  0  0  0  0  0
    3.9636   -3.3022    0.7308 C   0  0  0  0  0  3  0  0  0  0  0  0
    2.5519   -3.3225    0.8333 C   0  0  0  0  0  3  0  0  0  0  0  0
    3.4395   -2.8725    3.8340 C   0  0  0  0  0  3  0  0  0  0  0  0
    3.3820   -4.2852    3.7675 C   0  0  0  0  0  3  0  0  0  0  0  0
    4.1333   -5.0599    4.6079 C   0  0  0  0  0  3  0  0  0  0  0  0
    4.9756   -4.4683    5.5634 C   0  0  0  0  0  3  0  0  0  0  0  0
    5.0451   -3.1061    5.6628 C   0  0  0  0  0  3  0  0  0  0  0  0
    4.2813   -2.2776    4.8102 C   0  0  0  0  0  3  0  0  0  0  0  0
    4.3309   -0.8700    4.9074 C   0  0  0  0  0  3  0  0  0  0  0  0
    3.5728   -0.0870    4.0845 C   0  0  0  0  0  3  0  0  0  0  0  0
    3.5007   -0.3294    0.1588 C   0  0  0  0  0  3  0  0  0  0  0  0
    3.9221   -0.7530   -1.0899 C   0  0  0  0  0  3  0  0  0  0  0  0
   -0.5578    0.4220    2.8750 Ru  0  0  0  0  0  0  0  0  0  0  0  0
    3.3231   -1.4109   -3.0393 H   0  0  0  0  0  0  0  0  0  0  0  0
    0.9091   -1.1986   -2.5606 H   0  0  0  0  0  0  0  0  0  0  0  0
    0.1592   -0.4112   -0.3209 H   0  0  0  0  0  0  0  0  0  0  0  0
    3.1741    2.0797    0.0766 H   0  0  0  0  0  0  0  0  0  0  0  0
    4.0181    4.3747    0.2249 H   0  0  0  0  0  0  0  0  0  0  0  0
    3.7202    5.6925    2.2914 H   0  0  0  0  0  0  0  0  0  0  0  0
    2.5250    4.6987    4.2189 H   0  0  0  0  0  0  0  0  0  0  0  0
    1.6508    2.3837    4.0547 H   0  0  0  0  0  0  0  0  0  0  0  0
   -1.9687   -3.0265    5.5077 H   0  0  0  0  0  0  0  0  0  0  0  0
   -4.3569   -3.5079    5.7566 H   0  0  0  0  0  0  0  0  0  0  0  0
   -5.8893   -3.2611    3.8245 H   0  0  0  0  0  0  0  0  0  0  0  0
   -5.0051   -2.4759    1.6564 H   0  0  0  0  0  0  0  0  0  0  0  0
   -2.6090   -1.9214    1.4280 H   0  0  0  0  0  0  0  0  0  0  0  0
    1.2541   -0.9830    5.5456 H   0  0  0  0  0  0  0  0  0  0  0  0
    2.2913   -2.1976    7.4630 H   0  0  0  0  0  0  0  0  0  0  0  0
    2.0348   -4.6468    7.6328 H   0  0  0  0  0  0  0  0  0  0  0  0
    0.7627   -5.8791    5.9138 H   0  0  0  0  0  0  0  0  0  0  0  0
   -0.2888   -4.6558    4.0372 H   0  0  0  0  0  0  0  0  0  0  0  0
   -1.3117   -3.5602    1.0602 H   0  0  0  0  0  0  0  0  0  0  0  0
   -0.1477   -4.5802   -0.8387 H   0  0  0  0  0  0  0  0  0  0  0  0
    1.9267   -5.0714   -2.0377 H   0  0  0  0  0  0  0  0  0  0  0  0
    4.3937   -5.0072   -2.1577 H   0  0  0  0  0  0  0  0  0  0  0  0
    5.6845   -3.8850   -0.3754 H   0  0  0  0  0  0  0  0  0  0  0  0
    4.5399   -2.8028    1.4985 H   0  0  0  0  0  0  0  0  0  0  0  0
    2.7285   -4.7498    3.0409 H   0  0  0  0  0  0  0  0  0  0  0  0
    4.0782   -6.1394    4.5437 H   0  0  0  0  0  0  0  0  0  0  0  0
    5.5630   -5.0975    6.2204 H   0  0  0  0  0  0  0  0  0  0  0  0
    5.6845   -2.6376    6.4012 H   0  0  0  0  0  0  0  0  0  0  0  0
    4.9808   -0.4207    5.6484 H   0  0  0  0  0  0  0  0  0  0  0  0
    3.6181    0.9910    4.1661 H   0  0  0  0  0  0  0  0  0  0  0  0
    4.2254   -0.0929    0.9291 H   0  0  0  0  0  0  0  0  0  0  0  0
    4.9806   -0.8423   -1.3006 H   0  0  0  0  0  0  0  0  0  0  0  0
   -0.2287    0.9157    4.5204 H   0  0  0  0  0  0  0  0  0  0  0  0
   -1.0839    0.0827    1.4091 H   0  0  0  0  0  0  0  0  0  0  0  0
   -0.9006    2.4907    2.4753 N   0  0  0  0  0  4  0  0  0  0  0  0
   -2.3063    2.6371    2.0764 C   0  0  0  0  0  0  0  0  0  0  0  0
   -2.7489    4.0700    1.9007 C   0  0  0  0  0  3  0  0  0  0  0  0
   -3.5143    4.4284    0.7965 C   0  0  0  0  0  3  0  0  0  0  0  0
   -3.9610    5.7308    0.6423 C   0  0  0  0  0  3  0  0  0  0  0  0
   -3.6423    6.6890    1.5913 C   0  0  0  0  0  3  0  0  0  0  0  0
   -2.8827    6.3374    2.6961 C   0  0  0  0  0  3  0  0  0  0  0  0
   -2.4406    5.0347    2.8555 C   0  0  0  0  0  3  0  0  0  0  0  0
   -3.1265    1.9700    3.1971 C   0  0  0  0  0  0  0  0  0  0  0  0
   -2.6164    0.6088    3.4121 N   0  0  0  0  0  4  0  0  0  0  0  0
   -4.6052    2.0083    2.8962 C   0  0  0  0  0  3  0  0  0  0  0  0
   -5.1601    1.1817    1.9240 C   0  0  0  0  0  3  0  0  0  0  0  0
   -6.5164    1.2338    1.6485 C   0  0  0  0  0  3  0  0  0  0  0  0
   -7.3329    2.1192    2.3343 C   0  0  0  0  0  3  0  0  0  0  0  0
   -6.7861    2.9565    3.2935 C   0  0  0  0  0  3  0  0  0  0  0  0
   -5.4303    2.8998    3.5730 C   0  0  0  0  0  3  0  0  0  0  0  0
   -0.2944    2.9429    1.7967 H   0  0  0  0  0  0  0  0  0  0  0  0
   -0.7815    2.9685    3.3774 H   0  0  0  0  0  0  0  0  0  0  0  0
   -2.4524    2.0906    1.1360 H   0  0  0  0  0  0  0  0  0  0  0  0
   -3.7659    3.6796    0.0553 H   0  0  0  0  0  0  0  0  0  0  0  0
   -4.5583    5.9968   -0.2208 H   0  0  0  0  0  0  0  0  0  0  0  0
   -3.9883    7.7077    1.4710 H   0  0  0  0  0  0  0  0  0  0  0  0
   -2.6365    7.0826    3.4423 H   0  0  0  0  0  0  0  0  0  0  0  0
   -1.8663    4.7690    3.7349 H   0  0  0  0  0  0  0  0  0  0  0  0
   -2.9199    2.5532    4.1031 H   0  0  0  0  0  0  0  0  0  0  0  0
   -2.7914    0.3422    4.3772 H   0  0  0  0  0  0  0  0  0  0  0  0
   -3.1328   -0.0432    2.8279 H   0  0  0  0  0  0  0  0  0  0  0  0
   -4.5314    0.4980    1.3668 H   0  0  0  0  0  0  0  0  0  0  0  0
   -6.9376    0.5836    0.8917 H   0  0  0  0  0  0  0  0  0  0  0  0
   -8.3929    2.1594    2.1180 H   0  0  0  0  0  0  0  0  0  0  0  0
   -7.4171    3.6559    3.8272 H   0  0  0  0  0  0  0  0  0  0  0  0
   -5.0041    3.5595    4.3190 H   0  0  0  0  0  0  0  0  0  0  0  0
    0.6631    2.0317    6.5362 C   0  0  0  0  0  0  0  0  0  0  0  0
   -0.6732    1.9575    5.8163 C   0  0  0  0  0  0  0  0  0  0  0  0
   -1.6549    0.9916    6.4536 C   0  0  0  0  0  3  0  0  0  0  0  0
   -2.9915    1.3556    6.5066 C   0  0  0  0  0  3  0  0  0  0  0  0
   -3.9538    0.4876    7.0511 C   0  0  0  0  0  3  0  0  0  0  0  0
   -3.5570   -0.6994    7.5416 C   0  0  0  0  0  3  0  0  0  0  0  0
   -4.4216   -1.6711    8.0914 O   0  0  0  0  0  0  0  0  0  0  0  0
   -5.8050   -1.3651    8.1283 C   0  0  0  0  0  0  0  0  0  0  0  0
   -2.2226   -1.0407    7.5435 C   0  0  0  0  0  3  0  0  0  0  0  0
   -1.2893   -0.1863    7.0018 C   0  0  0  0  0  3  0  0  0  0  0  0
   -1.1214    2.9988    5.2642 O   0  0  0  0  0  0  0  0  0  0  0  0
    0.4576    2.2185    7.5751 H   0  0  0  0  0  0  0  0  0  0  0  0
    1.2348    2.8554    6.1488 H   0  0  0  0  0  0  0  0  0  0  0  0
    1.2386    1.1279    6.4546 H   0  0  0  0  0  0  0  0  0  0  0  0
   -3.2982    2.3200    6.1527 H   0  0  0  0  0  0  0  0  0  0  0  0
   -4.9767    0.8085    7.0596 H   0  0  0  0  0  0  0  0  0  0  0  0
   -5.9967   -0.4952    8.7319 H   0  0  0  0  0  0  0  0  0  0  0  0
   -6.1981   -1.2178    7.1374 H   0  0  0  0  0  0  0  0  0  0  0  0
   -6.2714   -2.2231    8.5782 H   0  0  0  0  0  0  0  0  0  0  0  0
   -1.9264   -1.9773    7.9733 H   0  0  0  0  0  0  0  0  0  0  0  0
   -0.2619   -0.4929    7.0186 H   0  0  0  0  0  0  0  0  0  0  0  0
  1  2  1  0  0  0  0
  1 46  1  0  0  0  0
  1 48  1  0  0  0  0
  2  3  1  0  0  0  0
  2 49  1  0  0  0  0
  3  4  1  0  0  0  0
  3 50  1  0  0  0  0
  4  5  1  0  0  0  0
  4 45  1  0  0  0  0
  5  6  1  0  0  0  0
  5 12  1  0  0  0  0
  5 47  1  0  0  0  0
  6  7  1  0  0  0  0
  6 11  1  0  0  0  0
  7  8  1  0  0  0  0
  7 51  1  0  0  0  0
  8  9  1  0  0  0  0
  8 52  1  0  0  0  0
  9 10  1  0  0  0  0
  9 53  1  0  0  0  0
 10 11  1  0  0  0  0
 10 54  1  0  0  0  0
 11 55  1  0  0  0  0
 12 13  1  0  0  0  0
 12 44  1  0  0  0  0
 13 14  1  0  0  0  0
 13 37  1  0  0  0  0
 14 15  1  0  0  0  0
 14 36  1  0  0  0  0
 15 16  1  0  0  0  0
 15 29  1  0  0  0  0
 16 17  1  0  0  0  0
 16 23  1  0  0  0  0
 17 18  1  0  0  0  0
 17 22  1  0  0  0  0
 18 19  1  0  0  0  0
 18 56  1  0  0  0  0
 19 20  1  0  0  0  0
 19 57  1  0  0  0  0
 20 21  1  0  0  0  0
 20 58  1  0  0  0  0
 21 22  1  0  0  0  0
 21 59  1  0  0  0  0
 22 60  1  0  0  0  0
 23 24  1  0  0  0  0
 23 28  1  0  0  0  0
 24 25  1  0  0  0  0
 24 61  1  0  0  0  0
 25 26  1  0  0  0  0
 25 62  1  0  0  0  0
 26 27  1  0  0  0  0
 26 63  1  0  0  0  0
 27 28  1  0  0  0  0
 27 64  1  0  0  0  0
 28 65  1  0  0  0  0
 29 30  1  0  0  0  0
 29 66  1  0  0  0  0
 30 31  1  0  0  0  0
 30 67  1  0  0  0  0
 31 32  1  0  0  0  0
 31 36  1  0  0  0  0
 32 33  1  0  0  0  0
 32 68  1  0  0  0  0
 33 34  1  0  0  0  0
 33 69  1  0  0  0  0
 34 35  1  0  0  0  0
 34 70  1  0  0  0  0
 35 36  1  0  0  0  0
 35 71  1  0  0  0  0
 37 38  1  0  0  0  0
 37 42  1  0  0  0  0
 38 39  1  0  0  0  0
 38 72  1  0  0  0  0
 39 40  1  0  0  0  0
 39 73  1  0  0  0  0
 40 41  1  0  0  0  0
 40 74  1  0  0  0  0
 41 42  1  0  0  0  0
 41 75  1  0  0  0  0
 42 43  1  0  0  0  0
 43 44  1  0  0  0  0
 43 76  1  0  0  0  0
 44 77  1  0  0  0  0
 45 46  1  0  0  0  0
 45 78  1  0  0  0  0
 46 79  1  0  0  0  0
 47 16  1  0  0  0  0
 47 82  1  0  0  0  0
 80 47  1  0  0  0  0
 81 47  1  0  0  0  0
 82 83  1  0  0  0  0
 82 98  1  0  0  0  0
 82 99  1  0  0  0  0
 83 84  1  0  0  0  0
 83 90  1  0  0  0  0
 83100  1  0  0  0  0
 84 85  1  0  0  0  0
 84 89  1  0  0  0  0
 85 86  1  0  0  0  0
 85101  1  0  0  0  0
 86 87  1  0  0  0  0
 86102  1  0  0  0  0
 87 88  1  0  0  0  0
 87103  1  0  0  0  0
 88 89  1  0  0  0  0
 88104  1  0  0  0  0
 89105  1  0  0  0  0
 90 91  1  0  0  0  0
 90 92  1  0  0  0  0
 90106  1  0  0  0  0
 91107  1  0  0  0  0
 91108  1  0  0  0  0
 91 47  1  0  0  0  0
 92 93  1  0  0  0  0
 92 97  1  0  0  0  0
 93 94  1  0  0  0  0
 93109  1  0  0  0  0
 94 95  1  0  0  0  0
 94110  1  0  0  0  0
 95 96  1  0  0  0  0
 95111  1  0  0  0  0
 96 97  1  0  0  0  0
 96112  1  0  0  0  0
 97113  1  0  0  0  0
114115  1  0  0  0  0
114125  1  0  0  0  0
114126  1  0  0  0  0
114127  1  0  0  0  0
115116  1  0  0  0  0
115124  2  0  0  0  0
115 80  1  0  0  0  0
116117  1  0  0  0  0
116123  1  0  0  0  0
117118  1  0  0  0  0
117128  1  0  0  0  0
118119  1  0  0  0  0
118129  1  0  0  0  0
119120  1  0  0  0  0
119122  1  0  0  0  0
120121  1  0  0  0  0
121130  1  0  0  0  0
121131  1  0  0  0  0
121132  1  0  0  0  0
122123  1  0  0  0  0
122133  1  0  0  0  0
123134  1  0  0  0  0
124 99  1  0  0  0  0
M  END
