 energy: -197.083543464915 gnorm: 0.000860008753 xtb: 6.7.1 (edcfbbe)
          07072517553D

138151  0     0  0            999 V2000
   -0.2607   -4.4233   -0.4896 C   0  0  0  0  0  3  0  0  0  0  0  0
   -0.4118   -3.0550   -0.6479 C   0  0  0  0  0  3  0  0  0  0  0  0
   -0.3865   -2.2216    0.4588 C   0  0  0  0  0  3  0  0  0  0  0  0
   -0.1911   -2.7483    1.7299 C   0  0  0  0  0  3  0  0  0  0  0  0
   -0.2081   -1.6592    3.2243 P   0  0  0  0  0  4  0  0  0  0  0  0
   -1.4975   -2.6720    4.0784 C   0  0  0  0  0  3  0  0  0  0  0  0
   -1.3117   -3.6449    5.0566 C   0  0  0  0  0  3  0  0  0  0  0  0
   -2.4001   -4.3183    5.5888 C   0  0  0  0  0  3  0  0  0  0  0  0
   -3.6856   -4.0477    5.1474 C   0  0  0  0  0  3  0  0  0  0  0  0
   -3.8771   -3.1231    4.1322 C   0  0  0  0  0  3  0  0  0  0  0  0
   -2.7882   -2.4527    3.6020 C   0  0  0  0  0  3  0  0  0  0  0  0
    1.3571   -2.1796    4.0302 C   0  0  0  0  0  3  0  0  0  0  0  0
    2.5295   -2.3376    3.3128 C   0  0  0  0  0  3  0  0  0  0  0  0
    2.5718   -2.0177    1.8629 C   0  0  0  0  0  3  0  0  0  0  0  0
    2.4295   -0.7001    1.4559 C   0  0  0  0  0  3  0  0  0  0  0  0
    1.9537    0.5801    2.7010 P   0  0  0  0  0  4  0  0  0  0  0  0
    3.3547    0.3283    3.8783 C   0  0  0  0  0  3  0  0  0  0  0  0
    3.1125    0.2987    5.2456 C   0  0  0  0  0  3  0  0  0  0  0  0
    4.1625    0.1367    6.1355 C   0  0  0  0  0  3  0  0  0  0  0  0
    5.4590    0.0136    5.6635 C   0  0  0  0  0  3  0  0  0  0  0  0
    5.7073    0.0484    4.2990 C   0  0  0  0  0  3  0  0  0  0  0  0
    4.6609    0.2028    3.4067 C   0  0  0  0  0  3  0  0  0  0  0  0
    2.5264    2.1558    1.9321 C   0  0  0  0  0  3  0  0  0  0  0  0
    1.8393    2.6199    0.8094 C   0  0  0  0  0  3  0  0  0  0  0  0
    2.1826    3.8189    0.2089 C   0  0  0  0  0  3  0  0  0  0  0  0
    3.1989    4.5962    0.7448 C   0  0  0  0  0  3  0  0  0  0  0  0
    3.8523    4.1711    1.8901 C   0  0  0  0  0  3  0  0  0  0  0  0
    3.5199    2.9620    2.4822 C   0  0  0  0  0  3  0  0  0  0  0  0
    2.5577   -0.3887    0.0869 C   0  0  0  0  0  3  0  0  0  0  0  0
    2.7944   -1.3601   -0.8441 C   0  0  0  0  0  3  0  0  0  0  0  0
    2.9236   -2.7137   -0.4651 C   0  0  0  0  0  3  0  0  0  0  0  0
    3.1571   -3.7376   -1.4108 C   0  0  0  0  0  3  0  0  0  0  0  0
    3.2993   -5.0382   -1.0127 C   0  0  0  0  0  3  0  0  0  0  0  0
    3.2080   -5.3710    0.3492 C   0  0  0  0  0  3  0  0  0  0  0  0
    2.9708   -4.4044    1.2871 C   0  0  0  0  0  3  0  0  0  0  0  0
    2.8302   -3.0469    0.9111 C   0  0  0  0  0  3  0  0  0  0  0  0
    3.7254   -2.7470    3.9783 C   0  0  0  0  0  3  0  0  0  0  0  0
    4.9506   -2.9319    3.2951 C   0  0  0  0  0  3  0  0  0  0  0  0
    6.0729   -3.3435    3.9605 C   0  0  0  0  0  3  0  0  0  0  0  0
    6.0388   -3.5743    5.3449 C   0  0  0  0  0  3  0  0  0  0  0  0
    4.8788   -3.3728    6.0411 C   0  0  0  0  0  3  0  0  0  0  0  0
    3.7028   -2.9500    5.3832 C   0  0  0  0  0  3  0  0  0  0  0  0
    2.5164   -2.6660    6.0959 C   0  0  0  0  0  3  0  0  0  0  0  0
    1.3869   -2.2748    5.4388 C   0  0  0  0  0  3  0  0  0  0  0  0
   -0.0510   -4.1257    1.8846 C   0  0  0  0  0  3  0  0  0  0  0  0
   -0.0854   -4.9569    0.7784 C   0  0  0  0  0  3  0  0  0  0  0  0
   -0.3325    0.6474    3.1050 Ru  0  0  0  0  0  0  0  0  0  0  0  0
   -0.2805   -5.0764   -1.3531 H   0  0  0  0  0  0  0  0  0  0  0  0
   -0.5510   -2.6360   -1.6367 H   0  0  0  0  0  0  0  0  0  0  0  0
   -0.4992   -1.1502    0.3548 H   0  0  0  0  0  0  0  0  0  0  0  0
   -0.3189   -3.8967    5.4064 H   0  0  0  0  0  0  0  0  0  0  0  0
   -2.2394   -5.0668    6.3551 H   0  0  0  0  0  0  0  0  0  0  0  0
   -4.5315   -4.5681    5.5787 H   0  0  0  0  0  0  0  0  0  0  0  0
   -4.8732   -2.9295    3.7531 H   0  0  0  0  0  0  0  0  0  0  0  0
   -2.9234   -1.7688    2.7728 H   0  0  0  0  0  0  0  0  0  0  0  0
    2.0906    0.3725    5.5949 H   0  0  0  0  0  0  0  0  0  0  0  0
    3.9681    0.0939    7.2001 H   0  0  0  0  0  0  0  0  0  0  0  0
    6.2796   -0.1150    6.3581 H   0  0  0  0  0  0  0  0  0  0  0  0
    6.7209   -0.0499    3.9305 H   0  0  0  0  0  0  0  0  0  0  0  0
    4.8469    0.2260    2.3394 H   0  0  0  0  0  0  0  0  0  0  0  0
    1.0083    2.0371    0.4328 H   0  0  0  0  0  0  0  0  0  0  0  0
    1.6482    4.1541   -0.6714 H   0  0  0  0  0  0  0  0  0  0  0  0
    3.4696    5.5358    0.2800 H   0  0  0  0  0  0  0  0  0  0  0  0
    4.6302    4.7839    2.3289 H   0  0  0  0  0  0  0  0  0  0  0  0
    4.0418    2.6509    3.3780 H   0  0  0  0  0  0  0  0  0  0  0  0
    2.4876    0.6422   -0.2312 H   0  0  0  0  0  0  0  0  0  0  0  0
    2.8933   -1.1006   -1.8912 H   0  0  0  0  0  0  0  0  0  0  0  0
    3.2212   -3.4692   -2.4582 H   0  0  0  0  0  0  0  0  0  0  0  0
    3.4806   -5.8185   -1.7413 H   0  0  0  0  0  0  0  0  0  0  0  0
    3.3197   -6.4048    0.6517 H   0  0  0  0  0  0  0  0  0  0  0  0
    2.8908   -4.6689    2.3333 H   0  0  0  0  0  0  0  0  0  0  0  0
    4.9926   -2.7481    2.2296 H   0  0  0  0  0  0  0  0  0  0  0  0
    7.0000   -3.4889    3.4198 H   0  0  0  0  0  0  0  0  0  0  0  0
    6.9366   -3.9007    5.8547 H   0  0  0  0  0  0  0  0  0  0  0  0
    4.8421   -3.5291    7.1124 H   0  0  0  0  0  0  0  0  0  0  0  0
    2.5198   -2.7448    7.1760 H   0  0  0  0  0  0  0  0  0  0  0  0
    0.4993   -1.9952    5.9907 H   0  0  0  0  0  0  0  0  0  0  0  0
    0.0909   -4.5435    2.8740 H   0  0  0  0  0  0  0  0  0  0  0  0
    0.0272   -6.0267    0.9046 H   0  0  0  0  0  0  0  0  0  0  0  0
   -0.5241    0.6408    1.5250 H   0  0  0  0  0  0  0  0  0  0  0  0
   -0.4117    0.8180    4.8454 H   0  0  0  0  0  0  0  0  0  0  0  0
   -4.7543    1.7245    3.5605 C   0  0  0  0  0  0  0  0  0  0  0  0
   -3.3065    2.0522    3.1886 C   0  0  0  0  0  0  0  0  0  0  0  0
   -2.4972    0.8281    3.2366 N   0  0  0  0  0  4  0  0  0  0  0  0
   -3.2636    2.6552    1.7835 C   0  0  0  0  0  0  0  0  0  0  0  0
   -4.1575    3.7533    1.6876 O   0  0  0  0  0  0  0  0  0  0  0  0
   -3.7993    4.4542    0.5110 C   0  0  0  0  0  0  0  0  0  0  0  0
   -4.5091    3.8813   -0.7260 C   0  0  0  0  0  0  0  0  0  0  0  0
   -4.1480    5.9333    0.6840 C   0  0  0  0  0  0  0  0  0  0  0  0
   -2.3908    4.2873    0.3677 O   0  0  0  0  0  0  0  0  0  0  0  0
   -1.9405    3.2420    1.2215 C   0  0  0  0  0  0  0  0  0  0  0  0
   -0.8975    3.8277    2.1977 C   0  0  0  0  0  0  0  0  0  0  0  0
   -1.4091    5.0566    2.9464 C   0  0  0  0  0  0  0  0  0  0  0  0
   -0.3679    2.8275    3.1363 N   0  0  0  0  0  4  0  0  0  0  0  0
   -5.1685    0.9798    2.8805 H   0  0  0  0  0  0  0  0  0  0  0  0
   -5.3666    2.6228    3.5035 H   0  0  0  0  0  0  0  0  0  0  0  0
   -4.7784    1.3356    4.5780 H   0  0  0  0  0  0  0  0  0  0  0  0
   -2.9355    2.7630    3.9335 H   0  0  0  0  0  0  0  0  0  0  0  0
   -2.6821    0.4104    4.1569 H   0  0  0  0  0  0  0  0  0  0  0  0
   -2.8778    0.1910    2.5417 H   0  0  0  0  0  0  0  0  0  0  0  0
   -3.5906    1.8653    1.0812 H   0  0  0  0  0  0  0  0  0  0  0  0
   -5.5854    3.8935   -0.5657 H   0  0  0  0  0  0  0  0  0  0  0  0
   -4.1850    2.8596   -0.9125 H   0  0  0  0  0  0  0  0  0  0  0  0
   -4.2597    4.4880   -1.5936 H   0  0  0  0  0  0  0  0  0  0  0  0
   -5.2274    6.0616    0.6314 H   0  0  0  0  0  0  0  0  0  0  0  0
   -3.6699    6.5051   -0.1082 H   0  0  0  0  0  0  0  0  0  0  0  0
   -3.7978    6.2875    1.6501 H   0  0  0  0  0  0  0  0  0  0  0  0
   -1.4305    2.4809    0.6156 H   0  0  0  0  0  0  0  0  0  0  0  0
   -0.0706    4.1491    1.5490 H   0  0  0  0  0  0  0  0  0  0  0  0
   -1.6034    5.8584    2.2365 H   0  0  0  0  0  0  0  0  0  0  0  0
   -0.6541    5.4027    3.6528 H   0  0  0  0  0  0  0  0  0  0  0  0
   -2.3320    4.8440    3.4851 H   0  0  0  0  0  0  0  0  0  0  0  0
   -0.8902    2.9105    4.0031 H   0  0  0  0  0  0  0  0  0  0  0  0
    0.5906    3.0885    3.3562 H   0  0  0  0  0  0  0  0  0  0  0  0
   -2.5088    0.9705    5.9807 O   0  0  0  0  0  0  0  0  0  0  0  0
   -1.3026    1.1867    6.2756 C   0  0  0  0  0  0  0  0  0  0  0  0
   -0.8742    2.6306    6.5424 C   0  0  0  0  0  0  0  0  0  0  0  0
   -1.5735    3.0635    7.8240 C   0  0  0  0  0  0  0  0  0  0  0  0
    0.6514    2.7584    6.6366 C   0  0  0  0  0  0  0  0  0  0  0  0
    1.2004    1.9075    7.7826 C   0  0  0  0  0  0  0  0  0  0  0  0
    0.5660    0.5423    7.8578 C   0  0  0  0  0  3  0  0  0  0  0  0
    1.1179   -0.3919    8.7286 C   0  0  0  0  0  3  0  0  0  0  0  0
    0.5339   -1.6243    8.9263 C   0  0  0  0  0  3  0  0  0  0  0  0
   -0.6339   -1.9517    8.2434 C   0  0  0  0  0  3  0  0  0  0  0  0
   -1.1782   -1.0301    7.3586 C   0  0  0  0  0  3  0  0  0  0  0  0
   -0.5833    0.2072    7.1627 C   0  0  0  0  0  3  0  0  0  0  0  0
   -1.2426    3.2756    5.7613 H   0  0  0  0  0  0  0  0  0  0  0  0
   -1.2886    4.0679    8.0823 H   0  0  0  0  0  0  0  0  0  0  0  0
   -2.6384    3.0296    7.6777 H   0  0  0  0  0  0  0  0  0  0  0  0
   -1.3327    2.4085    8.6417 H   0  0  0  0  0  0  0  0  0  0  0  0
    1.0857    2.4262    5.7089 H   0  0  0  0  0  0  0  0  0  0  0  0
    0.9240    3.7890    6.7889 H   0  0  0  0  0  0  0  0  0  0  0  0
    2.2668    1.8076    7.6751 H   0  0  0  0  0  0  0  0  0  0  0  0
    1.0206    2.4080    8.7191 H   0  0  0  0  0  0  0  0  0  0  0  0
    2.0065   -0.1322    9.2706 H   0  0  0  0  0  0  0  0  0  0  0  0
    0.9685   -2.3234    9.6137 H   0  0  0  0  0  0  0  0  0  0  0  0
   -1.1084   -2.9012    8.3942 H   0  0  0  0  0  0  0  0  0  0  0  0
   -2.0785   -1.2525    6.8206 H   0  0  0  0  0  0  0  0  0  0  0  0
  1  2  1  0  0  0  0
  1 46  1  0  0  0  0
  1 48  1  0  0  0  0
  2  3  1  0  0  0  0
  2 49  1  0  0  0  0
  3  4  1  0  0  0  0
  3 50  1  0  0  0  0
  4  5  1  0  0  0  0
  4 45  1  0  0  0  0
  5  6  1  0  0  0  0
  5 12  1  0  0  0  0
  5 47  1  0  0  0  0
  6  7  1  0  0  0  0
  6 11  1  0  0  0  0
  7  8  1  0  0  0  0
  7 51  1  0  0  0  0
  8  9  1  0  0  0  0
  8 52  1  0  0  0  0
  9 10  1  0  0  0  0
  9 53  1  0  0  0  0
 10 11  1  0  0  0  0
 10 54  1  0  0  0  0
 11 55  1  0  0  0  0
 12 13  1  0  0  0  0
 12 44  1  0  0  0  0
 13 14  1  0  0  0  0
 13 37  1  0  0  0  0
 14 15  1  0  0  0  0
 14 36  1  0  0  0  0
 15 16  1  0  0  0  0
 15 29  1  0  0  0  0
 16 17  1  0  0  0  0
 16 23  1  0  0  0  0
 17 18  1  0  0  0  0
 17 22  1  0  0  0  0
 18 19  1  0  0  0  0
 18 56  1  0  0  0  0
 19 20  1  0  0  0  0
 19 57  1  0  0  0  0
 20 21  1  0  0  0  0
 20 58  1  0  0  0  0
 21 22  1  0  0  0  0
 21 59  1  0  0  0  0
 22 60  1  0  0  0  0
 23 24  1  0  0  0  0
 23 28  1  0  0  0  0
 24 25  1  0  0  0  0
 24 61  1  0  0  0  0
 25 26  1  0  0  0  0
 25 62  1  0  0  0  0
 26 27  1  0  0  0  0
 26 63  1  0  0  0  0
 27 28  1  0  0  0  0
 27 64  1  0  0  0  0
 28 65  1  0  0  0  0
 29 30  1  0  0  0  0
 29 66  1  0  0  0  0
 30 31  1  0  0  0  0
 30 67  1  0  0  0  0
 31 32  1  0  0  0  0
 31 36  1  0  0  0  0
 32 33  1  0  0  0  0
 32 68  1  0  0  0  0
 33 34  1  0  0  0  0
 33 69  1  0  0  0  0
 34 35  1  0  0  0  0
 34 70  1  0  0  0  0
 35 36  1  0  0  0  0
 35 71  1  0  0  0  0
 37 38  1  0  0  0  0
 37 42  1  0  0  0  0
 38 39  1  0  0  0  0
 38 72  1  0  0  0  0
 39 40  1  0  0  0  0
 39 73  1  0  0  0  0
 40 41  1  0  0  0  0
 40 74  1  0  0  0  0
 41 42  1  0  0  0  0
 41 75  1  0  0  0  0
 42 43  1  0  0  0  0
 43 44  1  0  0  0  0
 43 76  1  0  0  0  0
 44 77  1  0  0  0  0
 45 46  1  0  0  0  0
 45 78  1  0  0  0  0
 46 79  1  0  0  0  0
 47 16  1  0  0  0  0
 47 84  1  0  0  0  0
 80 47  1  0  0  0  0
 81 47  1  0  0  0  0
 82 83  1  0  0  0  0
 82 95  1  0  0  0  0
 82 96  1  0  0  0  0
 82 97  1  0  0  0  0
 83 84  1  0  0  0  0
 83 85  1  0  0  0  0
 83 98  1  0  0  0  0
 84 99  1  0  0  0  0
 84100  1  0  0  0  0
 85 86  1  0  0  0  0
 85 91  1  0  0  0  0
 85101  1  0  0  0  0
 86 87  1  0  0  0  0
 87 88  1  0  0  0  0
 87 89  1  0  0  0  0
 87 90  1  0  0  0  0
 88102  1  0  0  0  0
 88103  1  0  0  0  0
 88104  1  0  0  0  0
 89105  1  0  0  0  0
 89106  1  0  0  0  0
 89107  1  0  0  0  0
 90 91  1  0  0  0  0
 91 92  1  0  0  0  0
 91108  1  0  0  0  0
 92 93  1  0  0  0  0
 92 94  1  0  0  0  0
 92109  1  0  0  0  0
 93110  1  0  0  0  0
 93111  1  0  0  0  0
 93112  1  0  0  0  0
 94113  1  0  0  0  0
 94114  1  0  0  0  0
 94 47  1  0  0  0  0
115116  2  0  0  0  0
115 99  1  0  0  0  0
116117  1  0  0  0  0
116126  1  0  0  0  0
116 81  1  0  0  0  0
117118  1  0  0  0  0
117119  1  0  0  0  0
117127  1  0  0  0  0
118128  1  0  0  0  0
118129  1  0  0  0  0
118130  1  0  0  0  0
119120  1  0  0  0  0
119131  1  0  0  0  0
119132  1  0  0  0  0
120121  1  0  0  0  0
120133  1  0  0  0  0
120134  1  0  0  0  0
121122  1  0  0  0  0
121126  1  0  0  0  0
122123  1  0  0  0  0
122135  1  0  0  0  0
123124  1  0  0  0  0
123136  1  0  0  0  0
124125  1  0  0  0  0
124137  1  0  0  0  0
125126  1  0  0  0  0
125138  1  0  0  0  0
M  END
