 energy: -238.103135835418 gnorm: 0.000953049942 xtb: 6.7.1 (edcfbbe)
          07072517493D

163177  0     0  0            999 V2000
    3.8068   -0.0654   -0.6953 C   0  0  0  0  0  3  0  0  0  0  0  0
    2.4218   -0.0336   -0.6614 C   0  0  0  0  0  3  0  0  0  0  0  0
    1.7616    0.1944    0.5352 C   0  0  0  0  0  3  0  0  0  0  0  0
    2.4854    0.3761    1.7073 C   0  0  0  0  0  3  0  0  0  0  0  0
    1.6262    0.6973    3.3059 P   0  0  0  0  0  4  0  0  0  0  0  0
    2.2732    2.3954    3.6287 C   0  0  0  0  0  3  0  0  0  0  0  0
    2.8726    3.1805    2.6472 C   0  0  0  0  0  3  0  0  0  0  0  0
    3.2073    4.4996    2.9104 C   0  0  0  0  0  3  0  0  0  0  0  0
    2.9418    5.0605    4.1494 C   0  0  0  0  0  3  0  0  0  0  0  0
    2.3178    4.2980    5.1252 C   0  0  0  0  0  3  0  0  0  0  0  0
    1.9759    2.9825    4.8602 C   0  0  0  0  0  3  0  0  0  0  0  0
    2.6175   -0.4258    4.3810 C   0  0  0  0  0  3  0  0  0  0  0  0
    2.6120   -1.7791    4.0765 C   0  0  0  0  0  3  0  0  0  0  0  0
    2.1662   -2.2682    2.7419 C   0  0  0  0  0  3  0  0  0  0  0  0
    0.8326   -2.3608    2.3747 C   0  0  0  0  0  3  0  0  0  0  0  0
   -0.4564   -1.7352    3.5348 P   0  0  0  0  0  4  0  0  0  0  0  0
   -1.9749   -2.5647    2.8942 C   0  0  0  0  0  3  0  0  0  0  0  0
   -2.6979   -3.5315    3.5875 C   0  0  0  0  0  3  0  0  0  0  0  0
   -3.8194   -4.1090    3.0128 C   0  0  0  0  0  3  0  0  0  0  0  0
   -4.2546   -3.7099    1.7592 C   0  0  0  0  0  3  0  0  0  0  0  0
   -3.5771   -2.7043    1.0863 C   0  0  0  0  0  3  0  0  0  0  0  0
   -2.4495   -2.1354    1.6535 C   0  0  0  0  0  3  0  0  0  0  0  0
   -0.0406   -2.9062    4.8973 C   0  0  0  0  0  3  0  0  0  0  0  0
    0.1667   -2.4589    6.1956 C   0  0  0  0  0  3  0  0  0  0  0  0
    0.4817   -3.3525    7.2066 C   0  0  0  0  0  3  0  0  0  0  0  0
    0.5827   -4.7058    6.9282 C   0  0  0  0  0  3  0  0  0  0  0  0
    0.3835   -5.1609    5.6331 C   0  0  0  0  0  3  0  0  0  0  0  0
    0.0838   -4.2669    4.6197 C   0  0  0  0  0  3  0  0  0  0  0  0
    0.5098   -2.8920    1.1092 C   0  0  0  0  0  3  0  0  0  0  0  0
    1.4754   -3.2826    0.2264 C   0  0  0  0  0  3  0  0  0  0  0  0
    2.8429   -3.1802    0.5594 C   0  0  0  0  0  3  0  0  0  0  0  0
    3.8592   -3.5672   -0.3430 C   0  0  0  0  0  3  0  0  0  0  0  0
    5.1777   -3.4800    0.0082 C   0  0  0  0  0  3  0  0  0  0  0  0
    5.5313   -2.9966    1.2787 C   0  0  0  0  0  3  0  0  0  0  0  0
    4.5698   -2.6052    2.1690 C   0  0  0  0  0  3  0  0  0  0  0  0
    3.1942   -2.6873    1.8434 C   0  0  0  0  0  3  0  0  0  0  0  0
    3.1835   -2.7161    4.9897 C   0  0  0  0  0  3  0  0  0  0  0  0
    3.2205   -4.1055    4.7203 C   0  0  0  0  0  3  0  0  0  0  0  0
    3.7588   -4.9811    5.6227 C   0  0  0  0  0  3  0  0  0  0  0  0
    4.2788   -4.5202    6.8432 C   0  0  0  0  0  3  0  0  0  0  0  0
    4.2669   -3.1834    7.1305 C   0  0  0  0  0  3  0  0  0  0  0  0
    3.7315   -2.2508    6.2138 C   0  0  0  0  0  3  0  0  0  0  0  0
    3.7609   -0.8619    6.4648 C   0  0  0  0  0  3  0  0  0  0  0  0
    3.2205    0.0213    5.5745 C   0  0  0  0  0  3  0  0  0  0  0  0
    3.8788    0.3542    1.6671 C   0  0  0  0  0  3  0  0  0  0  0  0
    4.5348    0.1372    0.4676 C   0  0  0  0  0  3  0  0  0  0  0  0
   -0.6384    0.5543    3.6805 Ru  0  0  0  0  0  0  0  0  0  0  0  0
    4.3236   -0.2454   -1.6297 H   0  0  0  0  0  0  0  0  0  0  0  0
    1.8543   -0.1858   -1.5713 H   0  0  0  0  0  0  0  0  0  0  0  0
    0.6810    0.2280    0.5875 H   0  0  0  0  0  0  0  0  0  0  0  0
    3.0777    2.7663    1.6687 H   0  0  0  0  0  0  0  0  0  0  0  0
    3.6761    5.0953    2.1367 H   0  0  0  0  0  0  0  0  0  0  0  0
    3.2068    6.0912    4.3492 H   0  0  0  0  0  0  0  0  0  0  0  0
    2.0836    4.7319    6.0898 H   0  0  0  0  0  0  0  0  0  0  0  0
    1.4505    2.4019    5.6072 H   0  0  0  0  0  0  0  0  0  0  0  0
   -2.3849   -3.8457    4.5746 H   0  0  0  0  0  0  0  0  0  0  0  0
   -4.3571   -4.8800    3.5508 H   0  0  0  0  0  0  0  0  0  0  0  0
   -5.1271   -4.1705    1.3127 H   0  0  0  0  0  0  0  0  0  0  0  0
   -3.9249   -2.3695    0.1167 H   0  0  0  0  0  0  0  0  0  0  0  0
   -1.9104   -1.3491    1.1409 H   0  0  0  0  0  0  0  0  0  0  0  0
    0.0824   -1.4003    6.4035 H   0  0  0  0  0  0  0  0  0  0  0  0
    0.6475   -2.9914    8.2141 H   0  0  0  0  0  0  0  0  0  0  0  0
    0.8232   -5.4074    7.7172 H   0  0  0  0  0  0  0  0  0  0  0  0
    0.4679   -6.2176    5.4112 H   0  0  0  0  0  0  0  0  0  0  0  0
   -0.0605   -4.6214    3.6060 H   0  0  0  0  0  0  0  0  0  0  0  0
   -0.5292   -3.0108    0.8331 H   0  0  0  0  0  0  0  0  0  0  0  0
    1.2021   -3.6855   -0.7412 H   0  0  0  0  0  0  0  0  0  0  0  0
    3.5689   -3.9350   -1.3197 H   0  0  0  0  0  0  0  0  0  0  0  0
    5.9537   -3.7787   -0.6856 H   0  0  0  0  0  0  0  0  0  0  0  0
    6.5779   -2.9290    1.5486 H   0  0  0  0  0  0  0  0  0  0  0  0
    4.8623   -2.2242    3.1385 H   0  0  0  0  0  0  0  0  0  0  0  0
    2.8160   -4.4684    3.7849 H   0  0  0  0  0  0  0  0  0  0  0  0
    3.7815   -6.0411    5.4020 H   0  0  0  0  0  0  0  0  0  0  0  0
    4.6920   -5.2298    7.5493 H   0  0  0  0  0  0  0  0  0  0  0  0
    4.6714   -2.8149    8.0656 H   0  0  0  0  0  0  0  0  0  0  0  0
    4.2266   -0.5064    7.3761 H   0  0  0  0  0  0  0  0  0  0  0  0
    3.2827    1.0848    5.7628 H   0  0  0  0  0  0  0  0  0  0  0  0
    4.4424    0.5092    2.5797 H   0  0  0  0  0  0  0  0  0  0  0  0
    5.6173    0.1200    0.4396 H   0  0  0  0  0  0  0  0  0  0  0  0
   -0.4668    0.5458    5.4217 H   0  0  0  0  0  0  0  0  0  0  0  0
   -0.9078    0.6824    2.1174 H   0  0  0  0  0  0  0  0  0  0  0  0
   -6.9517    3.0207   -1.7253 C   0  0  0  0  0  0  0  0  0  0  0  0
   -6.0249    2.0197   -1.3591 O   0  0  0  0  0  0  0  0  0  0  0  0
   -5.4299    2.1034   -0.1352 C   0  0  0  0  0  3  0  0  0  0  0  0
   -4.4944    1.1117    0.1625 C   0  0  0  0  0  3  0  0  0  0  0  0
   -3.8308    1.1071    1.3734 C   0  0  0  0  0  3  0  0  0  0  0  0
   -4.0725    2.0915    2.3295 C   0  0  0  0  0  3  0  0  0  0  0  0
   -3.3659    2.1227    3.6780 C   0  0  0  0  0  0  0  0  0  0  0  0
   -2.7339    0.8126    4.0069 N   0  0  0  0  0  4  0  0  0  0  0  0
   -4.4295    2.2483    4.7697 C   0  0  0  0  0  3  0  0  0  0  0  0
   -5.6890    1.6857    4.5618 C   0  0  0  0  0  3  0  0  0  0  0  0
   -6.6357    1.6040    5.5672 C   0  0  0  0  0  3  0  0  0  0  0  0
   -6.3403    2.0798    6.8433 C   0  0  0  0  0  3  0  0  0  0  0  0
   -7.1860    2.0439    7.9109 O   0  0  0  0  0  0  0  0  0  0  0  0
   -8.4523    1.4417    7.7382 C   0  0  0  0  0  0  0  0  0  0  0  0
   -5.0785    2.6300    7.0669 C   0  0  0  0  0  3  0  0  0  0  0  0
   -4.1392    2.6968    6.0554 C   0  0  0  0  0  3  0  0  0  0  0  0
   -2.2620    3.2200    3.7304 C   0  0  0  0  0  0  0  0  0  0  0  0
   -0.9282    2.6351    3.9228 N   0  0  0  0  0  4  0  0  0  0  0  0
   -2.2081    4.2294    2.5580 C   0  0  0  0  0  0  0  0  0  0  0  0
   -1.4823    5.5001    3.0168 C   0  0  0  0  0  0  0  0  0  0  0  0
   -1.5424    3.6908    1.2875 C   0  0  0  0  0  0  0  0  0  0  0  0
   -5.0245    3.0646    2.0323 C   0  0  0  0  0  3  0  0  0  0  0  0
   -5.6941    3.0820    0.8201 C   0  0  0  0  0  3  0  0  0  0  0  0
   -7.2695    2.7706   -2.7386 H   0  0  0  0  0  0  0  0  0  0  0  0
   -6.4892    4.0141   -1.7245 H   0  0  0  0  0  0  0  0  0  0  0  0
   -7.8239    3.0226   -1.0620 H   0  0  0  0  0  0  0  0  0  0  0  0
   -4.2976    0.3510   -0.5806 H   0  0  0  0  0  0  0  0  0  0  0  0
   -3.0934    0.3426    1.5683 H   0  0  0  0  0  0  0  0  0  0  0  0
   -2.7254    0.7703    5.0229 H   0  0  0  0  0  0  0  0  0  0  0  0
   -3.3554    0.0655    3.7112 H   0  0  0  0  0  0  0  0  0  0  0  0
   -5.9478    1.2882    3.5878 H   0  0  0  0  0  0  0  0  0  0  0  0
   -7.5954    1.1587    5.3458 H   0  0  0  0  0  0  0  0  0  0  0  0
   -8.3540    0.3877    7.4554 H   0  0  0  0  0  0  0  0  0  0  0  0
   -9.0499    1.9703    6.9871 H   0  0  0  0  0  0  0  0  0  0  0  0
   -8.9488    1.5148    8.7069 H   0  0  0  0  0  0  0  0  0  0  0  0
   -4.8488    2.9910    8.0601 H   0  0  0  0  0  0  0  0  0  0  0  0
   -3.1533    3.0593    6.3098 H   0  0  0  0  0  0  0  0  0  0  0  0
   -2.4896    3.8330    4.6113 H   0  0  0  0  0  0  0  0  0  0  0  0
   -0.2571    3.1536    3.3660 H   0  0  0  0  0  0  0  0  0  0  0  0
   -0.6762    2.7872    4.9071 H   0  0  0  0  0  0  0  0  0  0  0  0
   -3.2364    4.5170    2.3059 H   0  0  0  0  0  0  0  0  0  0  0  0
   -1.4561    6.2247    2.2029 H   0  0  0  0  0  0  0  0  0  0  0  0
   -0.4523    5.2939    3.3111 H   0  0  0  0  0  0  0  0  0  0  0  0
   -1.9944    5.9577    3.8632 H   0  0  0  0  0  0  0  0  0  0  0  0
   -0.4625    3.5952    1.4027 H   0  0  0  0  0  0  0  0  0  0  0  0
   -1.7284    4.3765    0.4608 H   0  0  0  0  0  0  0  0  0  0  0  0
   -1.9394    2.7136    1.0218 H   0  0  0  0  0  0  0  0  0  0  0  0
   -5.2741    3.8142    2.7732 H   0  0  0  0  0  0  0  0  0  0  0  0
   -6.4221    3.8598    0.6374 H   0  0  0  0  0  0  0  0  0  0  0  0
    0.6290    1.0001    7.6180 C   0  0  0  0  0  0  0  0  0  0  0  0
   -0.7263    1.2398    6.9741 C   0  0  0  0  0  0  0  0  0  0  0  0
   -1.8452    0.3642    7.5053 C   0  0  0  0  0  0  0  0  0  0  0  0
   -2.5778   -0.5268    6.8538 C   0  0  0  0  0  0  0  0  0  0  0  0
   -3.8884   -0.9348    7.3895 C   0  0  0  0  0  3  0  0  0  0  0  0
   -4.9194   -1.3621    6.5470 C   0  0  0  0  0  3  0  0  0  0  0  0
   -4.6231   -1.4030    5.1664 O   0  0  0  0  0  0  0  0  0  0  0  0
   -5.6823   -1.7586    4.2946 C   0  0  0  0  0  0  0  0  0  0  0  0
   -6.1494   -1.6677    7.0775 C   0  0  0  0  0  3  0  0  0  0  0  0
   -6.3926   -1.5223    8.4282 C   0  0  0  0  0  3  0  0  0  0  0  0
   -5.3960   -1.0565    9.2694 C   0  0  0  0  0  3  0  0  0  0  0  0
   -5.5604   -0.8435   10.6555 O   0  0  0  0  0  0  0  0  0  0  0  0
   -6.8783   -0.9176   11.1708 C   0  0  0  0  0  0  0  0  0  0  0  0
   -4.1347   -0.7658    8.7474 C   0  0  0  0  0  3  0  0  0  0  0  0
   -3.0072   -0.2445    9.5966 C   0  0  0  0  0  0  0  0  0  0  0  0
   -2.2963    0.8445    8.8525 C   0  0  0  0  0  0  0  0  0  0  0  0
   -1.1272    2.4107    6.7308 O   0  0  0  0  0  0  0  0  0  0  0  0
    0.4923    0.4717    8.5444 H   0  0  0  0  0  0  0  0  0  0  0  0
    1.0946    1.9471    7.8228 H   0  0  0  0  0  0  0  0  0  0  0  0
    1.2837    0.4127    7.0007 H   0  0  0  0  0  0  0  0  0  0  0  0
   -2.2937   -0.9506    5.9110 H   0  0  0  0  0  0  0  0  0  0  0  0
   -5.9932   -2.7762    4.4539 H   0  0  0  0  0  0  0  0  0  0  0  0
   -6.5202   -1.0946    4.4139 H   0  0  0  0  0  0  0  0  0  0  0  0
   -5.2826   -1.6625    3.3009 H   0  0  0  0  0  0  0  0  0  0  0  0
   -6.9471   -2.0211    6.4545 H   0  0  0  0  0  0  0  0  0  0  0  0
   -7.3636   -1.7706    8.8083 H   0  0  0  0  0  0  0  0  0  0  0  0
   -7.5344   -0.2397   10.6532 H   0  0  0  0  0  0  0  0  0  0  0  0
   -7.2658   -1.9199   11.1169 H   0  0  0  0  0  0  0  0  0  0  0  0
   -6.7940   -0.6222   12.2013 H   0  0  0  0  0  0  0  0  0  0  0  0
   -3.4008    0.1142   10.5323 H   0  0  0  0  0  0  0  0  0  0  0  0
   -2.3282   -1.0544    9.8038 H   0  0  0  0  0  0  0  0  0  0  0  0
   -1.4548    1.2013    9.4217 H   0  0  0  0  0  0  0  0  0  0  0  0
   -2.9543    1.6844    8.7043 H   0  0  0  0  0  0  0  0  0  0  0  0
  1  2  1  0  0  0  0
  1 46  1  0  0  0  0
  1 48  1  0  0  0  0
  2  3  1  0  0  0  0
  2 49  1  0  0  0  0
  3  4  1  0  0  0  0
  3 50  1  0  0  0  0
  4  5  1  0  0  0  0
  4 45  1  0  0  0  0
  5  6  1  0  0  0  0
  5 12  1  0  0  0  0
  5 47  1  0  0  0  0
  6  7  1  0  0  0  0
  6 11  1  0  0  0  0
  7  8  1  0  0  0  0
  7 51  1  0  0  0  0
  8  9  1  0  0  0  0
  8 52  1  0  0  0  0
  9 10  1  0  0  0  0
  9 53  1  0  0  0  0
 10 11  1  0  0  0  0
 10 54  1  0  0  0  0
 11 55  1  0  0  0  0
 12 13  1  0  0  0  0
 12 44  1  0  0  0  0
 13 14  1  0  0  0  0
 13 37  1  0  0  0  0
 14 15  1  0  0  0  0
 14 36  1  0  0  0  0
 15 16  1  0  0  0  0
 15 29  1  0  0  0  0
 16 17  1  0  0  0  0
 16 23  1  0  0  0  0
 17 18  1  0  0  0  0
 17 22  1  0  0  0  0
 18 19  1  0  0  0  0
 18 56  1  0  0  0  0
 19 20  1  0  0  0  0
 19 57  1  0  0  0  0
 20 21  1  0  0  0  0
 20 58  1  0  0  0  0
 21 22  1  0  0  0  0
 21 59  1  0  0  0  0
 22 60  1  0  0  0  0
 23 24  1  0  0  0  0
 23 28  1  0  0  0  0
 24 25  1  0  0  0  0
 24 61  1  0  0  0  0
 25 26  1  0  0  0  0
 25 62  1  0  0  0  0
 26 27  1  0  0  0  0
 26 63  1  0  0  0  0
 27 28  1  0  0  0  0
 27 64  1  0  0  0  0
 28 65  1  0  0  0  0
 29 30  1  0  0  0  0
 29 66  1  0  0  0  0
 30 31  1  0  0  0  0
 30 67  1  0  0  0  0
 31 32  1  0  0  0  0
 31 36  1  0  0  0  0
 32 33  1  0  0  0  0
 32 68  1  0  0  0  0
 33 34  1  0  0  0  0
 33 69  1  0  0  0  0
 34 35  1  0  0  0  0
 34 70  1  0  0  0  0
 35 36  1  0  0  0  0
 35 71  1  0  0  0  0
 37 38  1  0  0  0  0
 37 42  1  0  0  0  0
 38 39  1  0  0  0  0
 38 72  1  0  0  0  0
 39 40  1  0  0  0  0
 39 73  1  0  0  0  0
 40 41  1  0  0  0  0
 40 74  1  0  0  0  0
 41 42  1  0  0  0  0
 41 75  1  0  0  0  0
 42 43  1  0  0  0  0
 43 44  1  0  0  0  0
 43 76  1  0  0  0  0
 44 77  1  0  0  0  0
 45 46  1  0  0  0  0
 45 78  1  0  0  0  0
 46 79  1  0  0  0  0
 47 16  1  0  0  0  0
 47 99  1  0  0  0  0
 80 47  1  0  0  0  0
 81 47  1  0  0  0  0
 82 83  1  0  0  0  0
 82105  1  0  0  0  0
 82106  1  0  0  0  0
 82107  1  0  0  0  0
 83 84  1  0  0  0  0
 84 85  1  0  0  0  0
 84104  1  0  0  0  0
 85 86  1  0  0  0  0
 85108  1  0  0  0  0
 86 87  1  0  0  0  0
 86109  1  0  0  0  0
 87 88  1  0  0  0  0
 87103  1  0  0  0  0
 88 89  1  0  0  0  0
 88 90  1  0  0  0  0
 88 98  1  0  0  0  0
 89110  1  0  0  0  0
 89111  1  0  0  0  0
 89 47  1  0  0  0  0
 90 91  1  0  0  0  0
 90 97  1  0  0  0  0
 91 92  1  0  0  0  0
 91112  1  0  0  0  0
 92 93  1  0  0  0  0
 92113  1  0  0  0  0
 93 94  1  0  0  0  0
 93 96  1  0  0  0  0
 94 95  1  0  0  0  0
 95114  1  0  0  0  0
 95115  1  0  0  0  0
 95116  1  0  0  0  0
 96 97  1  0  0  0  0
 96117  1  0  0  0  0
 97118  1  0  0  0  0
 98 99  1  0  0  0  0
 98100  1  0  0  0  0
 98119  1  0  0  0  0
 99120  1  0  0  0  0
 99121  1  0  0  0  0
100101  1  0  0  0  0
100102  1  0  0  0  0
100122  1  0  0  0  0
101123  1  0  0  0  0
101124  1  0  0  0  0
101125  1  0  0  0  0
102126  1  0  0  0  0
102127  1  0  0  0  0
102128  1  0  0  0  0
103104  1  0  0  0  0
103129  1  0  0  0  0
104130  1  0  0  0  0
131132  1  0  0  0  0
131148  1  0  0  0  0
131149  1  0  0  0  0
131150  1  0  0  0  0
132133  1  0  0  0  0
132147  2  0  0  0  0
132 80  1  0  0  0  0
133134  2  0  0  0  0
133146  1  0  0  0  0
134135  1  0  0  0  0
134151  1  0  0  0  0
135136  1  0  0  0  0
135144  1  0  0  0  0
136137  1  0  0  0  0
136139  1  0  0  0  0
137138  1  0  0  0  0
138152  1  0  0  0  0
138153  1  0  0  0  0
138154  1  0  0  0  0
139140  1  0  0  0  0
139155  1  0  0  0  0
140141  1  0  0  0  0
140156  1  0  0  0  0
141142  1  0  0  0  0
141144  1  0  0  0  0
142143  1  0  0  0  0
143157  1  0  0  0  0
143158  1  0  0  0  0
143159  1  0  0  0  0
144145  1  0  0  0  0
145146  1  0  0  0  0
145160  1  0  0  0  0
145161  1  0  0  0  0
146162  1  0  0  0  0
146163  1  0  0  0  0
147121  1  0  0  0  0
M  END
