 energy: -179.256078808672 gnorm: 0.000719688932 xtb: 6.7.1 (edcfbbe)
          07072520173D

123134  0     0  0            999 V2000
    0.5872   -1.5195    4.2041 O   0  0  0  0  0  0  0  0  0  0  0  0
    1.5870   -2.0307    3.6654 C   0  0  0  0  0  0  0  0  0  0  0  0
    1.3575   -3.0497    2.6651 C   0  0  0  0  0  3  0  0  0  0  0  0
    2.3429   -3.8495    2.0797 C   0  0  0  0  0  3  0  0  0  0  0  0
    1.9890   -4.7531    1.0990 C   0  0  0  0  0  3  0  0  0  0  0  0
    0.6649   -4.8478    0.6840 C   0  0  0  0  0  3  0  0  0  0  0  0
   -0.3121   -4.0352    1.2388 C   0  0  0  0  0  3  0  0  0  0  0  0
    0.0118   -3.1393    2.2488 C   0  0  0  0  0  3  0  0  0  0  0  0
   -1.1480   -1.8807    2.9492 P   0  0  0  0  0  4  0  0  0  0  0  0
   -2.6954   -2.3735    1.9848 C   0  0  0  0  0  3  0  0  0  0  0  0
   -3.3215   -3.5971    2.2170 C   0  0  0  0  0  3  0  0  0  0  0  0
   -4.4818   -3.9408    1.5397 C   0  0  0  0  0  3  0  0  0  0  0  0
   -5.0388   -3.0649    0.6219 C   0  0  0  0  0  3  0  0  0  0  0  0
   -4.4216   -1.8482    0.3737 C   0  0  0  0  0  3  0  0  0  0  0  0
   -3.2604   -1.5102    1.0478 C   0  0  0  0  0  3  0  0  0  0  0  0
   -1.7575   -2.6614    4.5091 C   0  0  0  0  0  3  0  0  0  0  0  0
   -2.9829   -2.2606    5.0270 C   0  0  0  0  0  3  0  0  0  0  0  0
   -3.5113   -2.8728    6.1516 C   0  0  0  0  0  3  0  0  0  0  0  0
   -2.8162   -3.8989    6.7720 C   0  0  0  0  0  3  0  0  0  0  0  0
   -1.5868   -4.2972    6.2696 C   0  0  0  0  0  3  0  0  0  0  0  0
   -1.0592   -3.6829    5.1459 C   0  0  0  0  0  3  0  0  0  0  0  0
    2.9054   -1.3811    3.8346 C   0  0  0  0  0  3  0  0  0  0  0  0
    3.9748   -1.9310    4.5286 C   0  0  0  0  0  3  0  0  0  0  0  0
    5.1425   -1.1989    4.6784 C   0  0  0  0  0  3  0  0  0  0  0  0
    5.2394    0.0705    4.1318 C   0  0  0  0  0  3  0  0  0  0  0  0
    4.1794    0.6152    3.4198 C   0  0  0  0  0  3  0  0  0  0  0  0
    2.9987   -0.0998    3.2727 C   0  0  0  0  0  3  0  0  0  0  0  0
    1.5483    0.4011    2.2207 P   0  0  0  0  0  4  0  0  0  0  0  0
    2.0806    2.0548    1.6242 C   0  0  0  0  0  3  0  0  0  0  0  0
    2.3044    3.0645    2.5612 C   0  0  0  0  0  3  0  0  0  0  0  0
    2.5736    4.3599    2.1500 C   0  0  0  0  0  3  0  0  0  0  0  0
    2.6048    4.6626    0.7968 C   0  0  0  0  0  3  0  0  0  0  0  0
    2.3647    3.6685   -0.1391 C   0  0  0  0  0  3  0  0  0  0  0  0
    2.1003    2.3709    0.2687 C   0  0  0  0  0  3  0  0  0  0  0  0
    2.0237   -0.6406    0.7605 C   0  0  0  0  0  3  0  0  0  0  0  0
    1.0249   -1.2432    0.0069 C   0  0  0  0  0  3  0  0  0  0  0  0
    1.3503   -2.0300   -1.0858 C   0  0  0  0  0  3  0  0  0  0  0  0
    2.6779   -2.2202   -1.4319 C   0  0  0  0  0  3  0  0  0  0  0  0
    3.6795   -1.6114   -0.6901 C   0  0  0  0  0  3  0  0  0  0  0  0
    3.3583   -0.8227    0.4011 C   0  0  0  0  0  3  0  0  0  0  0  0
   -0.6829    0.4805    2.8906 Ru  0  0  0  0  0  0  0  0  0  0  0  0
    3.3724   -3.7488    2.3995 H   0  0  0  0  0  0  0  0  0  0  0  0
    2.7436   -5.3816    0.6431 H   0  0  0  0  0  0  0  0  0  0  0  0
    0.3949   -5.5519   -0.0930 H   0  0  0  0  0  0  0  0  0  0  0  0
   -1.3273   -4.1010    0.8701 H   0  0  0  0  0  0  0  0  0  0  0  0
   -2.8951   -4.2913    2.9313 H   0  0  0  0  0  0  0  0  0  0  0  0
   -4.9526   -4.8973    1.7320 H   0  0  0  0  0  0  0  0  0  0  0  0
   -5.9490   -3.3310    0.0990 H   0  0  0  0  0  0  0  0  0  0  0  0
   -4.8481   -1.1621   -0.3481 H   0  0  0  0  0  0  0  0  0  0  0  0
   -2.7633   -0.5696    0.8465 H   0  0  0  0  0  0  0  0  0  0  0  0
   -3.5472   -1.4796    4.5345 H   0  0  0  0  0  0  0  0  0  0  0  0
   -4.4713   -2.5528    6.5377 H   0  0  0  0  0  0  0  0  0  0  0  0
   -3.2323   -4.3912    7.6424 H   0  0  0  0  0  0  0  0  0  0  0  0
   -1.0391   -5.0987    6.7504 H   0  0  0  0  0  0  0  0  0  0  0  0
   -0.1050   -4.0098    4.7511 H   0  0  0  0  0  0  0  0  0  0  0  0
    3.8861   -2.9213    4.9569 H   0  0  0  0  0  0  0  0  0  0  0  0
    5.9779   -1.6196    5.2235 H   0  0  0  0  0  0  0  0  0  0  0  0
    6.1520    0.6416    4.2494 H   0  0  0  0  0  0  0  0  0  0  0  0
    4.2855    1.5951    2.9724 H   0  0  0  0  0  0  0  0  0  0  0  0
    2.2587    2.8257    3.6171 H   0  0  0  0  0  0  0  0  0  0  0  0
    2.7522    5.1340    2.8861 H   0  0  0  0  0  0  0  0  0  0  0  0
    2.8111    5.6752    0.4733 H   0  0  0  0  0  0  0  0  0  0  0  0
    2.3818    3.9062   -1.1956 H   0  0  0  0  0  0  0  0  0  0  0  0
    1.9041    1.5968   -0.4626 H   0  0  0  0  0  0  0  0  0  0  0  0
   -0.0061   -1.0853    0.2921 H   0  0  0  0  0  0  0  0  0  0  0  0
    0.5643   -2.4988   -1.6650 H   0  0  0  0  0  0  0  0  0  0  0  0
    2.9355   -2.8406   -2.2811 H   0  0  0  0  0  0  0  0  0  0  0  0
    4.7180   -1.7517   -0.9632 H   0  0  0  0  0  0  0  0  0  0  0  0
    4.1459   -0.3466    0.9728 H   0  0  0  0  0  0  0  0  0  0  0  0
   -0.3458    0.7081    4.5897 H   0  0  0  0  0  0  0  0  0  0  0  0
   -1.0646    0.5899    1.3438 H   0  0  0  0  0  0  0  0  0  0  0  0
   -0.6947    2.6112    2.9281 N   0  0  0  0  0  4  0  0  0  0  0  0
   -2.0325    3.1914    3.0986 C   0  0  0  0  0  0  0  0  0  0  0  0
   -2.2449    4.4098    2.2334 C   0  0  0  0  0  3  0  0  0  0  0  0
   -1.8892    4.3838    0.8889 C   0  0  0  0  0  3  0  0  0  0  0  0
   -2.1104    5.4892    0.0837 C   0  0  0  0  0  3  0  0  0  0  0  0
   -2.6992    6.6273    0.6117 C   0  0  0  0  0  3  0  0  0  0  0  0
   -3.0661    6.6562    1.9478 C   0  0  0  0  0  3  0  0  0  0  0  0
   -2.8397    5.5537    2.7550 C   0  0  0  0  0  3  0  0  0  0  0  0
   -3.1049    2.1367    2.7679 C   0  0  0  0  0  0  0  0  0  0  0  0
   -2.7095    0.8834    3.4232 N   0  0  0  0  0  4  0  0  0  0  0  0
   -4.4705    2.6391    3.1697 C   0  0  0  0  0  3  0  0  0  0  0  0
   -4.9307    2.5332    4.4789 C   0  0  0  0  0  3  0  0  0  0  0  0
   -6.1685    3.0451    4.8315 C   0  0  0  0  0  3  0  0  0  0  0  0
   -6.9594    3.6756    3.8838 C   0  0  0  0  0  3  0  0  0  0  0  0
   -6.5072    3.7885    2.5790 C   0  0  0  0  0  3  0  0  0  0  0  0
   -5.2717    3.2714    2.2251 C   0  0  0  0  0  3  0  0  0  0  0  0
   -0.2358    3.0253    2.1223 H   0  0  0  0  0  0  0  0  0  0  0  0
   -0.1582    2.8809    3.7620 H   0  0  0  0  0  0  0  0  0  0  0  0
   -2.1437    3.4634    4.1558 H   0  0  0  0  0  0  0  0  0  0  0  0
   -1.4461    3.4931    0.4596 H   0  0  0  0  0  0  0  0  0  0  0  0
   -1.8265    5.4583   -0.9607 H   0  0  0  0  0  0  0  0  0  0  0  0
   -2.8740    7.4899   -0.0186 H   0  0  0  0  0  0  0  0  0  0  0  0
   -3.5297    7.5416    2.3639 H   0  0  0  0  0  0  0  0  0  0  0  0
   -3.1258    5.5767    3.7994 H   0  0  0  0  0  0  0  0  0  0  0  0
   -3.0907    1.9549    1.6854 H   0  0  0  0  0  0  0  0  0  0  0  0
   -2.7253    0.9988    4.4328 H   0  0  0  0  0  0  0  0  0  0  0  0
   -3.3714    0.1525    3.1722 H   0  0  0  0  0  0  0  0  0  0  0  0
   -4.3265    2.0541    5.2395 H   0  0  0  0  0  0  0  0  0  0  0  0
   -6.5145    2.9547    5.8535 H   0  0  0  0  0  0  0  0  0  0  0  0
   -7.9249    4.0779    4.1628 H   0  0  0  0  0  0  0  0  0  0  0  0
   -7.1180    4.2804    1.8324 H   0  0  0  0  0  0  0  0  0  0  0  0
   -4.9199    3.3638    1.2047 H   0  0  0  0  0  0  0  0  0  0  0  0
    1.3531    1.3457    6.2327 C   0  0  0  0  0  0  0  0  0  0  0  0
   -0.1119    1.6698    5.9958 C   0  0  0  0  0  0  0  0  0  0  0  0
   -1.0807    0.8598    6.8062 C   0  0  0  0  0  3  0  0  0  0  0  0
   -0.7952   -0.4178    7.2915 C   0  0  0  0  0  3  0  0  0  0  0  0
   -1.6886   -1.0627    8.1057 C   0  0  0  0  0  3  0  0  0  0  0  0
   -2.9055   -0.4778    8.4505 C   0  0  0  0  0  3  0  0  0  0  0  0
   -3.8605   -1.1871    9.3887 C   0  0  0  0  0  0  0  0  0  0  0  0
   -3.2057    0.7731    7.9447 C   0  0  0  0  0  3  0  0  0  0  0  0
   -2.2983    1.4365    7.1378 C   0  0  0  0  0  3  0  0  0  0  0  0
   -0.4430    2.8381    5.6568 O   0  0  0  0  0  0  0  0  0  0  0  0
    1.5539    1.4716    7.2816 H   0  0  0  0  0  0  0  0  0  0  0  0
    1.9699    2.0302    5.6791 H   0  0  0  0  0  0  0  0  0  0  0  0
    1.5959    0.3397    5.9425 H   0  0  0  0  0  0  0  0  0  0  0  0
    0.1198   -0.9041    7.0173 H   0  0  0  0  0  0  0  0  0  0  0  0
   -1.4505   -2.0357    8.4890 H   0  0  0  0  0  0  0  0  0  0  0  0
   -3.8172   -2.2502    9.2344 H   0  0  0  0  0  0  0  0  0  0  0  0
   -3.5822   -0.9815   10.4071 H   0  0  0  0  0  0  0  0  0  0  0  0
   -4.8677   -0.8439    9.2353 H   0  0  0  0  0  0  0  0  0  0  0  0
   -4.1377    1.2420    8.1941 H   0  0  0  0  0  0  0  0  0  0  0  0
   -2.5059    2.4274    6.7834 H   0  0  0  0  0  0  0  0  0  0  0  0
  1  2  2  0  0  0  0
  3  2  1  0  0  0  0
  3  4  1  0  0  0  0
  3  8  1  0  0  0  0
  4  5  1  0  0  0  0
  4 42  1  0  0  0  0
  5  6  1  0  0  0  0
  5 43  1  0  0  0  0
  6  7  1  0  0  0  0
  6 44  1  0  0  0  0
  7 45  1  0  0  0  0
  8  7  1  0  0  0  0
  8  9  1  0  0  0  0
  9 10  1  0  0  0  0
  9 16  1  0  0  0  0
 10 11  1  0  0  0  0
 10 15  1  0  0  0  0
 11 12  1  0  0  0  0
 11 46  1  0  0  0  0
 12 13  1  0  0  0  0
 12 47  1  0  0  0  0
 13 14  1  0  0  0  0
 13 48  1  0  0  0  0
 14 15  1  0  0  0  0
 14 49  1  0  0  0  0
 15 50  1  0  0  0  0
 16 17  1  0  0  0  0
 16 21  1  0  0  0  0
 17 18  1  0  0  0  0
 17 51  1  0  0  0  0
 18 19  1  0  0  0  0
 18 52  1  0  0  0  0
 19 20  1  0  0  0  0
 19 53  1  0  0  0  0
 20 21  1  0  0  0  0
 20 54  1  0  0  0  0
 21 55  1  0  0  0  0
 22  2  1  0  0  0  0
 22 23  1  0  0  0  0
 22 27  1  0  0  0  0
 23 24  1  0  0  0  0
 23 56  1  0  0  0  0
 24 25  1  0  0  0  0
 24 57  1  0  0  0  0
 25 26  1  0  0  0  0
 25 58  1  0  0  0  0
 26 59  1  0  0  0  0
 27 26  1  0  0  0  0
 27 28  1  0  0  0  0
 28 29  1  0  0  0  0
 28 35  1  0  0  0  0
 28 41  1  0  0  0  0
 29 30  1  0  0  0  0
 29 34  1  0  0  0  0
 30 31  1  0  0  0  0
 30 60  1  0  0  0  0
 31 32  1  0  0  0  0
 31 61  1  0  0  0  0
 32 33  1  0  0  0  0
 32 62  1  0  0  0  0
 33 34  1  0  0  0  0
 33 63  1  0  0  0  0
 34 64  1  0  0  0  0
 35 36  1  0  0  0  0
 35 40  1  0  0  0  0
 36 37  1  0  0  0  0
 36 65  1  0  0  0  0
 37 38  1  0  0  0  0
 37 66  1  0  0  0  0
 38 39  1  0  0  0  0
 38 67  1  0  0  0  0
 39 40  1  0  0  0  0
 39 68  1  0  0  0  0
 40 69  1  0  0  0  0
 41  9  1  0  0  0  0
 41 72  1  0  0  0  0
 70 41  1  0  0  0  0
 71 41  1  0  0  0  0
 72 73  1  0  0  0  0
 72 88  1  0  0  0  0
 72 89  1  0  0  0  0
 73 74  1  0  0  0  0
 73 80  1  0  0  0  0
 73 90  1  0  0  0  0
 74 75  1  0  0  0  0
 74 79  1  0  0  0  0
 75 76  1  0  0  0  0
 75 91  1  0  0  0  0
 76 77  1  0  0  0  0
 76 92  1  0  0  0  0
 77 78  1  0  0  0  0
 77 93  1  0  0  0  0
 78 79  1  0  0  0  0
 78 94  1  0  0  0  0
 79 95  1  0  0  0  0
 80 81  1  0  0  0  0
 80 82  1  0  0  0  0
 80 96  1  0  0  0  0
 81 97  1  0  0  0  0
 81 98  1  0  0  0  0
 81 41  1  0  0  0  0
 82 83  1  0  0  0  0
 82 87  1  0  0  0  0
 83 84  1  0  0  0  0
 83 99  1  0  0  0  0
 84 85  1  0  0  0  0
 84100  1  0  0  0  0
 85 86  1  0  0  0  0
 85101  1  0  0  0  0
 86 87  1  0  0  0  0
 86102  1  0  0  0  0
 87103  1  0  0  0  0
104105  1  0  0  0  0
104114  1  0  0  0  0
104115  1  0  0  0  0
104116  1  0  0  0  0
105113  2  0  0  0  0
105 70  1  0  0  0  0
106105  1  0  0  0  0
106107  1  0  0  0  0
106112  1  0  0  0  0
107108  1  0  0  0  0
107117  1  0  0  0  0
108109  1  0  0  0  0
108118  1  0  0  0  0
109110  1  0  0  0  0
109111  1  0  0  0  0
110119  1  0  0  0  0
110120  1  0  0  0  0
110121  1  0  0  0  0
111112  1  0  0  0  0
111122  1  0  0  0  0
112123  1  0  0  0  0
113 89  1  0  0  0  0
M  END
