 energy: -261.544113015410 gnorm: 0.000758799314 xtb: 6.7.1 (edcfbbe)
          07072519353D

185198  0     0  0            999 V2000
    3.6147    1.3188   -1.7731 C   0  0  0  0  0  3  0  0  0  0  0  0
    4.3426    1.0615   -0.6158 C   0  0  0  0  0  3  0  0  0  0  0  0
    3.6609    0.8830    0.5798 C   0  0  0  0  0  3  0  0  0  0  0  0
    2.2700    0.9592    0.6232 C   0  0  0  0  0  3  0  0  0  0  0  0
    1.3986    0.7847    2.2376 P   0  0  0  0  0  4  0  0  0  0  0  0
    1.9569    2.3548    3.0291 C   0  0  0  0  0  3  0  0  0  0  0  0
    2.8023    3.2916    2.4471 C   0  0  0  0  0  3  0  0  0  0  0  0
    3.0553    4.5053    3.0791 C   0  0  0  0  0  3  0  0  0  0  0  0
    2.4443    4.7827    4.2943 C   0  0  0  0  0  3  0  0  0  0  0  0
    1.5829    3.8680    4.8926 C   0  0  0  0  0  3  0  0  0  0  0  0
    1.3509    2.6612    4.2481 C   0  0  0  0  0  3  0  0  0  0  0  0
    2.4765   -0.5109    2.9864 C   0  0  0  0  0  3  0  0  0  0  0  0
    2.5960   -1.7411    2.3608 C   0  0  0  0  0  3  0  0  0  0  0  0
    2.0617   -1.9146    0.9823 C   0  0  0  0  0  3  0  0  0  0  0  0
    0.7013   -1.8660    0.7278 C   0  0  0  0  0  3  0  0  0  0  0  0
   -0.5414   -1.6995    2.0827 P   0  0  0  0  0  4  0  0  0  0  0  0
    0.1346   -2.8892    3.3214 C   0  0  0  0  0  3  0  0  0  0  0  0
    0.5205   -2.4359    4.5748 C   0  0  0  0  0  3  0  0  0  0  0  0
    1.0029   -3.3165    5.5351 C   0  0  0  0  0  3  0  0  0  0  0  0
    1.1038   -4.6642    5.2130 C   0  0  0  0  0  3  0  0  0  0  0  0
    0.7327   -5.1387    3.9594 C   0  0  0  0  0  3  0  0  0  0  0  0
    0.2392   -4.2447    3.0194 C   0  0  0  0  0  3  0  0  0  0  0  0
   -1.9422   -2.7355    1.4802 C   0  0  0  0  0  3  0  0  0  0  0  0
   -3.1512   -2.5390    2.1386 C   0  0  0  0  0  3  0  0  0  0  0  0
   -4.3028   -3.2201    1.7590 C   0  0  0  0  0  3  0  0  0  0  0  0
   -4.2189   -4.1251    0.7094 C   0  0  0  0  0  3  0  0  0  0  0  0
   -3.0128   -4.3712    0.0613 C   0  0  0  0  0  3  0  0  0  0  0  0
   -1.8767   -3.6760    0.4525 C   0  0  0  0  0  3  0  0  0  0  0  0
    0.2319   -1.8015   -0.5980 C   0  0  0  0  0  3  0  0  0  0  0  0
    1.0732   -1.9132   -1.6737 C   0  0  0  0  0  3  0  0  0  0  0  0
    2.4654   -2.0816   -1.4450 C   0  0  0  0  0  3  0  0  0  0  0  0
    3.3820   -2.2516   -2.5086 C   0  0  0  0  0  3  0  0  0  0  0  0
    4.7301   -2.3800   -2.2956 C   0  0  0  0  0  3  0  0  0  0  0  0
    5.2158   -2.3211   -0.9743 C   0  0  0  0  0  3  0  0  0  0  0  0
    4.3630   -2.1508    0.0788 C   0  0  0  0  0  3  0  0  0  0  0  0
    2.9641   -2.0513   -0.1151 C   0  0  0  0  0  3  0  0  0  0  0  0
    3.3022   -2.7899    3.0209 C   0  0  0  0  0  3  0  0  0  0  0  0
    3.3875   -4.0854    2.4572 C   0  0  0  0  0  3  0  0  0  0  0  0
    4.0468   -5.0925    3.1021 C   0  0  0  0  0  3  0  0  0  0  0  0
    4.6567   -4.8718    4.3529 C   0  0  0  0  0  3  0  0  0  0  0  0
    4.5844   -3.6239    4.9167 C   0  0  0  0  0  3  0  0  0  0  0  0
    3.9098   -2.5542    4.2836 C   0  0  0  0  0  3  0  0  0  0  0  0
    3.8194   -1.2626    4.8693 C   0  0  0  0  0  3  0  0  0  0  0  0
    3.0892   -0.2925    4.2345 C   0  0  0  0  0  3  0  0  0  0  0  0
    1.5648    1.2351   -0.5391 C   0  0  0  0  0  3  0  0  0  0  0  0
    2.2293    1.4121   -1.7468 C   0  0  0  0  0  3  0  0  0  0  0  0
   -0.8823    0.5502    2.4396 Ru  0  0  0  0  0  0  0  0  0  0  0  0
    0.8391   -6.6028    3.6367 C   0  0  0  0  0  0  0  0  0  0  0  0
    1.3809   -2.8322    6.9064 C   0  0  0  0  0  0  0  0  0  0  0  0
   -2.9500   -5.3798   -1.0511 C   0  0  0  0  0  0  0  0  0  0  0  0
   -5.6127   -2.9932    2.4608 C   0  0  0  0  0  0  0  0  0  0  0  0
    1.4533    1.7288   -2.9940 C   0  0  0  0  0  0  0  0  0  0  0  0
    5.8437    1.0064   -0.6650 C   0  0  0  0  0  0  0  0  0  0  0  0
    3.9891    5.5012    2.4497 C   0  0  0  0  0  0  0  0  0  0  0  0
    0.9121    4.1768    6.2021 C   0  0  0  0  0  0  0  0  0  0  0  0
    4.5200   -0.9472    6.1620 C   0  0  0  0  0  0  0  0  0  0  0  0
    0.5111   -1.8807   -3.0680 C   0  0  0  0  0  0  0  0  0  0  0  0
    5.6953   -2.5788   -3.4292 C   0  0  0  0  0  0  0  0  0  0  0  0
    5.3621   -6.0061    5.0392 C   0  0  0  0  0  0  0  0  0  0  0  0
    4.1418    1.4501   -2.7108 H   0  0  0  0  0  0  0  0  0  0  0  0
    4.2140    0.6772    1.4889 H   0  0  0  0  0  0  0  0  0  0  0  0
    3.2656    3.0903    1.4903 H   0  0  0  0  0  0  0  0  0  0  0  0
    2.6309    5.7331    4.7796 H   0  0  0  0  0  0  0  0  0  0  0  0
    0.6703    1.9358    4.6744 H   0  0  0  0  0  0  0  0  0  0  0  0
    0.4680   -1.3740    4.7775 H   0  0  0  0  0  0  0  0  0  0  0  0
    1.4850   -5.3588    5.9522 H   0  0  0  0  0  0  0  0  0  0  0  0
   -0.0613   -4.6047    2.0426 H   0  0  0  0  0  0  0  0  0  0  0  0
   -3.1757   -1.8544    2.9767 H   0  0  0  0  0  0  0  0  0  0  0  0
   -5.1089   -4.6566    0.3943 H   0  0  0  0  0  0  0  0  0  0  0  0
   -0.9411   -3.8652   -0.0567 H   0  0  0  0  0  0  0  0  0  0  0  0
   -0.8253   -1.6337   -0.7526 H   0  0  0  0  0  0  0  0  0  0  0  0
    3.0043   -2.2896   -3.5223 H   0  0  0  0  0  0  0  0  0  0  0  0
    6.2813   -2.4122   -0.8018 H   0  0  0  0  0  0  0  0  0  0  0  0
    4.7574   -2.1032    1.0852 H   0  0  0  0  0  0  0  0  0  0  0  0
    2.9139   -4.2649    1.5010 H   0  0  0  0  0  0  0  0  0  0  0  0
    4.1020   -6.0793    2.6587 H   0  0  0  0  0  0  0  0  0  0  0  0
    5.0493   -3.4536    5.8794 H   0  0  0  0  0  0  0  0  0  0  0  0
    2.9970    0.6870    4.6851 H   0  0  0  0  0  0  0  0  0  0  0  0
    0.4846    1.2912   -0.4936 H   0  0  0  0  0  0  0  0  0  0  0  0
    1.6517   -7.0640    4.1989 H   0  0  0  0  0  0  0  0  0  0  0  0
    1.0138   -6.7515    2.5715 H   0  0  0  0  0  0  0  0  0  0  0  0
   -0.0898   -7.1108    3.9026 H   0  0  0  0  0  0  0  0  0  0  0  0
    1.6282   -1.7705    6.8865 H   0  0  0  0  0  0  0  0  0  0  0  0
    2.2343   -3.3918    7.2879 H   0  0  0  0  0  0  0  0  0  0  0  0
    0.5479   -2.9790    7.5970 H   0  0  0  0  0  0  0  0  0  0  0  0
   -3.7238   -5.1791   -1.7929 H   0  0  0  0  0  0  0  0  0  0  0  0
   -3.1180   -6.3845   -0.6583 H   0  0  0  0  0  0  0  0  0  0  0  0
   -1.9782   -5.3571   -1.5429 H   0  0  0  0  0  0  0  0  0  0  0  0
   -6.4381   -2.9988    1.7491 H   0  0  0  0  0  0  0  0  0  0  0  0
   -5.6176   -2.0424    2.9970 H   0  0  0  0  0  0  0  0  0  0  0  0
   -5.7888   -3.7937    3.1801 H   0  0  0  0  0  0  0  0  0  0  0  0
    0.4417    1.3328   -2.9100 H   0  0  0  0  0  0  0  0  0  0  0  0
    1.9398    1.3091   -3.8746 H   0  0  0  0  0  0  0  0  0  0  0  0
    1.3878    2.8106   -3.1297 H   0  0  0  0  0  0  0  0  0  0  0  0
    6.2555    2.0159   -0.7264 H   0  0  0  0  0  0  0  0  0  0  0  0
    6.1758    0.4532   -1.5438 H   0  0  0  0  0  0  0  0  0  0  0  0
    6.2431    0.5249    0.2270 H   0  0  0  0  0  0  0  0  0  0  0  0
    5.0095    5.3210    2.7924 H   0  0  0  0  0  0  0  0  0  0  0  0
    3.7157    6.5198    2.7240 H   0  0  0  0  0  0  0  0  0  0  0  0
    3.9771    5.4087    1.3631 H   0  0  0  0  0  0  0  0  0  0  0  0
    0.8320    5.2539    6.3539 H   0  0  0  0  0  0  0  0  0  0  0  0
    1.4927    3.7613    7.0278 H   0  0  0  0  0  0  0  0  0  0  0  0
   -0.0857    3.7400    6.2375 H   0  0  0  0  0  0  0  0  0  0  0  0
    5.5968   -1.0881    6.0565 H   0  0  0  0  0  0  0  0  0  0  0  0
    4.3355    0.0883    6.4476 H   0  0  0  0  0  0  0  0  0  0  0  0
    4.1713   -1.5948    6.9682 H   0  0  0  0  0  0  0  0  0  0  0  0
   -0.5523   -1.6441   -3.0388 H   0  0  0  0  0  0  0  0  0  0  0  0
    0.6330   -2.8515   -3.5514 H   0  0  0  0  0  0  0  0  0  0  0  0
    1.0209   -1.1327   -3.6767 H   0  0  0  0  0  0  0  0  0  0  0  0
    6.2176   -3.5300   -3.3174 H   0  0  0  0  0  0  0  0  0  0  0  0
    6.4470   -1.7872   -3.4342 H   0  0  0  0  0  0  0  0  0  0  0  0
    5.1792   -2.5761   -4.3889 H   0  0  0  0  0  0  0  0  0  0  0  0
    5.8056   -5.6813    5.9802 H   0  0  0  0  0  0  0  0  0  0  0  0
    6.1514   -6.4048    4.4000 H   0  0  0  0  0  0  0  0  0  0  0  0
    4.6615   -6.8171    5.2460 H   0  0  0  0  0  0  0  0  0  0  0  0
   -1.0491    0.3057    4.1635 H   0  0  0  0  0  0  0  0  0  0  0  0
   -0.9299    0.6937    0.8568 H   0  0  0  0  0  0  0  0  0  0  0  0
   -9.7921    3.1872    0.8343 C   0  0  0  0  0  0  0  0  0  0  0  0
   -9.0421    2.6793    1.9184 O   0  0  0  0  0  0  0  0  0  0  0  0
   -7.6961    2.5332    1.7652 C   0  0  0  0  0  3  0  0  0  0  0  0
   -7.0056    2.0041    2.8563 C   0  0  0  0  0  3  0  0  0  0  0  0
   -5.6382    1.8154    2.8022 C   0  0  0  0  0  3  0  0  0  0  0  0
   -4.9048    2.1469    1.6643 C   0  0  0  0  0  3  0  0  0  0  0  0
   -3.3998    1.9098    1.5731 C   0  0  0  0  0  0  0  0  0  0  0  0
   -2.9994    0.8403    2.5050 N   0  0  0  0  0  4  0  0  0  0  0  0
   -3.1514    1.4138    0.1441 C   0  0  0  0  0  3  0  0  0  0  0  0
   -2.6649    2.2055   -0.8897 C   0  0  0  0  0  3  0  0  0  0  0  0
   -2.4856    1.7115   -2.1737 C   0  0  0  0  0  3  0  0  0  0  0  0
   -2.8050    0.3901   -2.4667 C   0  0  0  0  0  3  0  0  0  0  0  0
   -2.6499   -0.2090   -3.6830 O   0  0  0  0  0  0  0  0  0  0  0  0
   -2.1955    0.5763   -4.7663 C   0  0  0  0  0  0  0  0  0  0  0  0
   -3.3487   -0.3999   -1.4519 C   0  0  0  0  0  3  0  0  0  0  0  0
   -3.5358    0.1124   -0.1862 C   0  0  0  0  0  3  0  0  0  0  0  0
   -2.5358    3.1341    1.9812 C   0  0  0  0  0  0  0  0  0  0  0  0
   -1.3243    2.6384    2.6699 N   0  0  0  0  0  4  0  0  0  0  0  0
   -3.2810    4.1932    2.8298 C   0  0  0  0  0  0  0  0  0  0  0  0
   -2.3540    4.9471    3.7929 C   0  0  0  0  0  0  0  0  0  0  0  0
   -3.9627    5.2156    1.9197 C   0  0  0  0  0  0  0  0  0  0  0  0
   -5.6063    2.6664    0.5794 C   0  0  0  0  0  3  0  0  0  0  0  0
   -6.9762    2.8641    0.6190 C   0  0  0  0  0  3  0  0  0  0  0  0
  -10.8281    3.2019    1.1763 H   0  0  0  0  0  0  0  0  0  0  0  0
   -9.7097    2.5413   -0.0469 H   0  0  0  0  0  0  0  0  0  0  0  0
   -9.4810    4.2050    0.5738 H   0  0  0  0  0  0  0  0  0  0  0  0
   -7.5659    1.7405    3.7430 H   0  0  0  0  0  0  0  0  0  0  0  0
   -5.1588    1.4008    3.6793 H   0  0  0  0  0  0  0  0  0  0  0  0
   -3.1561    1.1887    3.4467 H   0  0  0  0  0  0  0  0  0  0  0  0
   -3.6061    0.0382    2.3688 H   0  0  0  0  0  0  0  0  0  0  0  0
   -2.3975    3.2411   -0.7287 H   0  0  0  0  0  0  0  0  0  0  0  0
   -2.0937    2.3745   -2.9325 H   0  0  0  0  0  0  0  0  0  0  0  0
   -1.1850    0.9610   -4.5902 H   0  0  0  0  0  0  0  0  0  0  0  0
   -2.8753    1.4121   -4.9667 H   0  0  0  0  0  0  0  0  0  0  0  0
   -2.1809   -0.0928   -5.6279 H   0  0  0  0  0  0  0  0  0  0  0  0
   -3.6255   -1.4203   -1.6772 H   0  0  0  0  0  0  0  0  0  0  0  0
   -3.9883   -0.5430    0.5474 H   0  0  0  0  0  0  0  0  0  0  0  0
   -2.1869    3.6423    1.0711 H   0  0  0  0  0  0  0  0  0  0  0  0
   -0.5469    3.2670    2.4930 H   0  0  0  0  0  0  0  0  0  0  0  0
   -1.5087    2.6736    3.6801 H   0  0  0  0  0  0  0  0  0  0  0  0
   -4.0465    3.6982    3.4394 H   0  0  0  0  0  0  0  0  0  0  0  0
   -2.8975    5.7921    4.2155 H   0  0  0  0  0  0  0  0  0  0  0  0
   -1.4726    5.3372    3.2815 H   0  0  0  0  0  0  0  0  0  0  0  0
   -2.0444    4.3179    4.6265 H   0  0  0  0  0  0  0  0  0  0  0  0
   -3.2148    5.7945    1.3777 H   0  0  0  0  0  0  0  0  0  0  0  0
   -4.5618    5.9060    2.5144 H   0  0  0  0  0  0  0  0  0  0  0  0
   -4.6204    4.7337    1.1989 H   0  0  0  0  0  0  0  0  0  0  0  0
   -5.0764    2.9158   -0.3316 H   0  0  0  0  0  0  0  0  0  0  0  0
   -7.4691    3.2719   -0.2523 H   0  0  0  0  0  0  0  0  0  0  0  0
   -0.9067    0.5849    6.6130 C   0  0  0  0  0  0  0  0  0  0  0  0
   -1.9604    0.7938    5.5384 C   0  0  0  0  0  0  0  0  0  0  0  0
   -3.0036   -0.3074    5.5741 C   0  0  0  0  0  3  0  0  0  0  0  0
   -4.3097    0.1042    5.7983 C   0  0  0  0  0  3  0  0  0  0  0  0
   -5.3332   -0.8498    5.9249 C   0  0  0  0  0  3  0  0  0  0  0  0
   -5.0123   -2.1496    5.8217 C   0  0  0  0  0  3  0  0  0  0  0  0
   -6.0586   -3.1649    5.9301 N   0  0  0  0  0  4  0  0  0  0  0  0
   -7.2808   -2.7232    6.2004 O   0  0  0  0  0  1  0  0  0  0  0  0
   -5.7903   -4.3479    5.7588 O   0  0  0  0  0  0  0  0  0  0  0  0
   -3.7202   -2.5663    5.6046 C   0  0  0  0  0  3  0  0  0  0  0  0
   -2.7229   -1.6243    5.4874 C   0  0  0  0  0  3  0  0  0  0  0  0
   -2.3467    1.9596    5.2501 O   0  0  0  0  0  0  0  0  0  0  0  0
   -1.3974    0.7340    7.5582 H   0  0  0  0  0  0  0  0  0  0  0  0
   -0.1109    1.3019    6.5285 H   0  0  0  0  0  0  0  0  0  0  0  0
   -0.5058   -0.4117    6.5856 H   0  0  0  0  0  0  0  0  0  0  0  0
   -4.5264    1.1491    5.9023 H   0  0  0  0  0  0  0  0  0  0  0  0
   -6.3469   -0.5481    6.1020 H   0  0  0  0  0  0  0  0  0  0  0  0
   -3.5039   -3.6131    5.5216 H   0  0  0  0  0  0  0  0  0  0  0  0
   -1.7229   -1.9604    5.2958 H   0  0  0  0  0  0  0  0  0  0  0  0
  1  2  1  0  0  0  0
  1 46  1  0  0  0  0
  1 60  1  0  0  0  0
  2  3  1  0  0  0  0
  2 53  1  0  0  0  0
  3  4  1  0  0  0  0
  3 61  1  0  0  0  0
  4  5  1  0  0  0  0
  4 45  1  0  0  0  0
  5  6  1  0  0  0  0
  5 12  1  0  0  0  0
  5 47  1  0  0  0  0
  6  7  1  0  0  0  0
  6 11  1  0  0  0  0
  7  8  1  0  0  0  0
  7 62  1  0  0  0  0
  8  9  1  0  0  0  0
  8 54  1  0  0  0  0
  9 10  1  0  0  0  0
  9 63  1  0  0  0  0
 10 11  1  0  0  0  0
 10 55  1  0  0  0  0
 11 64  1  0  0  0  0
 12 13  1  0  0  0  0
 12 44  1  0  0  0  0
 13 14  1  0  0  0  0
 13 37  1  0  0  0  0
 14 15  1  0  0  0  0
 14 36  1  0  0  0  0
 15 16  1  0  0  0  0
 15 29  1  0  0  0  0
 16 17  1  0  0  0  0
 16 23  1  0  0  0  0
 17 18  1  0  0  0  0
 17 22  1  0  0  0  0
 18 19  1  0  0  0  0
 18 65  1  0  0  0  0
 19 20  1  0  0  0  0
 19 49  1  0  0  0  0
 20 21  1  0  0  0  0
 20 66  1  0  0  0  0
 21 22  1  0  0  0  0
 21 48  1  0  0  0  0
 22 67  1  0  0  0  0
 23 24  1  0  0  0  0
 23 28  1  0  0  0  0
 24 25  1  0  0  0  0
 24 68  1  0  0  0  0
 25 26  1  0  0  0  0
 25 51  1  0  0  0  0
 26 27  1  0  0  0  0
 26 69  1  0  0  0  0
 27 28  1  0  0  0  0
 27 50  1  0  0  0  0
 28 70  1  0  0  0  0
 29 30  1  0  0  0  0
 29 71  1  0  0  0  0
 30 31  1  0  0  0  0
 30 57  1  0  0  0  0
 31 32  1  0  0  0  0
 31 36  1  0  0  0  0
 32 33  1  0  0  0  0
 32 72  1  0  0  0  0
 33 34  1  0  0  0  0
 33 58  1  0  0  0  0
 34 35  1  0  0  0  0
 34 73  1  0  0  0  0
 35 36  1  0  0  0  0
 35 74  1  0  0  0  0
 37 38  1  0  0  0  0
 37 42  1  0  0  0  0
 38 39  1  0  0  0  0
 38 75  1  0  0  0  0
 39 40  1  0  0  0  0
 39 76  1  0  0  0  0
 40 41  1  0  0  0  0
 40 59  1  0  0  0  0
 41 42  1  0  0  0  0
 41 77  1  0  0  0  0
 42 43  1  0  0  0  0
 43 44  1  0  0  0  0
 43 56  1  0  0  0  0
 44 78  1  0  0  0  0
 45 46  1  0  0  0  0
 45 79  1  0  0  0  0
 46 52  1  0  0  0  0
 47 16  1  0  0  0  0
 47135  1  0  0  0  0
 48 80  1  0  0  0  0
 48 81  1  0  0  0  0
 48 82  1  0  0  0  0
 49 83  1  0  0  0  0
 49 84  1  0  0  0  0
 49 85  1  0  0  0  0
 50 86  1  0  0  0  0
 50 87  1  0  0  0  0
 50 88  1  0  0  0  0
 51 89  1  0  0  0  0
 51 90  1  0  0  0  0
 51 91  1  0  0  0  0
 52 92  1  0  0  0  0
 52 93  1  0  0  0  0
 52 94  1  0  0  0  0
 53 95  1  0  0  0  0
 53 96  1  0  0  0  0
 53 97  1  0  0  0  0
 54 98  1  0  0  0  0
 54 99  1  0  0  0  0
 54100  1  0  0  0  0
 55101  1  0  0  0  0
 55102  1  0  0  0  0
 55103  1  0  0  0  0
 56104  1  0  0  0  0
 56105  1  0  0  0  0
 56106  1  0  0  0  0
 57107  1  0  0  0  0
 57108  1  0  0  0  0
 57109  1  0  0  0  0
 58110  1  0  0  0  0
 58111  1  0  0  0  0
 58112  1  0  0  0  0
 59113  1  0  0  0  0
 59114  1  0  0  0  0
 59115  1  0  0  0  0
116 47  1  0  0  0  0
117 47  1  0  0  0  0
118119  1  0  0  0  0
118141  1  0  0  0  0
118142  1  0  0  0  0
118143  1  0  0  0  0
119120  1  0  0  0  0
120121  1  0  0  0  0
120140  1  0  0  0  0
121122  1  0  0  0  0
121144  1  0  0  0  0
122123  1  0  0  0  0
122145  1  0  0  0  0
123124  1  0  0  0  0
123139  1  0  0  0  0
124125  1  0  0  0  0
124126  1  0  0  0  0
124134  1  0  0  0  0
125146  1  0  0  0  0
125147  1  0  0  0  0
125 47  1  0  0  0  0
126127  1  0  0  0  0
126133  1  0  0  0  0
127128  1  0  0  0  0
127148  1  0  0  0  0
128129  1  0  0  0  0
128149  1  0  0  0  0
129130  1  0  0  0  0
129132  1  0  0  0  0
130131  1  0  0  0  0
131150  1  0  0  0  0
131151  1  0  0  0  0
131152  1  0  0  0  0
132133  1  0  0  0  0
132153  1  0  0  0  0
133154  1  0  0  0  0
134135  1  0  0  0  0
134136  1  0  0  0  0
134155  1  0  0  0  0
135156  1  0  0  0  0
135157  1  0  0  0  0
136137  1  0  0  0  0
136138  1  0  0  0  0
136158  1  0  0  0  0
137159  1  0  0  0  0
137160  1  0  0  0  0
137161  1  0  0  0  0
138162  1  0  0  0  0
138163  1  0  0  0  0
138164  1  0  0  0  0
139140  1  0  0  0  0
139165  1  0  0  0  0
140166  1  0  0  0  0
167168  1  0  0  0  0
167179  1  0  0  0  0
167180  1  0  0  0  0
167181  1  0  0  0  0
168169  1  0  0  0  0
168178  2  0  0  0  0
168116  1  0  0  0  0
169170  1  0  0  0  0
169177  1  0  0  0  0
170171  1  0  0  0  0
170182  1  0  0  0  0
171172  1  0  0  0  0
171183  1  0  0  0  0
172173  1  0  0  0  0
172176  1  0  0  0  0
173174  1  0  0  0  0
173175  2  0  0  0  0
176177  1  0  0  0  0
176184  1  0  0  0  0
177185  1  0  0  0  0
178157  1  0  0  0  0
M  END
