 energy: -240.042596861539 gnorm: 0.000808528586 xtb: 6.7.1 (edcfbbe)
          07072519353D

177190  0     0  0            999 V2000
    3.6186    0.3752   -1.7943 C   0  0  0  0  0  3  0  0  0  0  0  0
    4.4155    0.4286   -0.6556 C   0  0  0  0  0  3  0  0  0  0  0  0
    3.8010    0.5218    0.5857 C   0  0  0  0  0  3  0  0  0  0  0  0
    2.4134    0.5910    0.6899 C   0  0  0  0  0  3  0  0  0  0  0  0
    1.6689    0.7691    2.3668 P   0  0  0  0  0  4  0  0  0  0  0  0
    2.4066    2.4036    2.7991 C   0  0  0  0  0  3  0  0  0  0  0  0
    3.0767    3.1920    1.8705 C   0  0  0  0  0  3  0  0  0  0  0  0
    3.4751    4.4894    2.1761 C   0  0  0  0  0  3  0  0  0  0  0  0
    3.1665    5.0121    3.4239 C   0  0  0  0  0  3  0  0  0  0  0  0
    2.4646    4.2593    4.3605 C   0  0  0  0  0  3  0  0  0  0  0  0
    2.0923    2.9616    4.0395 C   0  0  0  0  0  3  0  0  0  0  0  0
    2.6561   -0.5494    3.1877 C   0  0  0  0  0  3  0  0  0  0  0  0
    2.6541   -1.8254    2.6503 C   0  0  0  0  0  3  0  0  0  0  0  0
    2.1540   -2.1294    1.2804 C   0  0  0  0  0  3  0  0  0  0  0  0
    0.8082   -2.1375    0.9529 C   0  0  0  0  0  3  0  0  0  0  0  0
   -0.4241   -1.6691    2.2409 P   0  0  0  0  0  4  0  0  0  0  0  0
   -0.1575   -3.2296    3.1882 C   0  0  0  0  0  3  0  0  0  0  0  0
    0.4580   -3.2119    4.4319 C   0  0  0  0  0  3  0  0  0  0  0  0
    0.6532   -4.3875    5.1467 C   0  0  0  0  0  3  0  0  0  0  0  0
    0.2721   -5.5898    4.5639 C   0  0  0  0  0  3  0  0  0  0  0  0
   -0.2865   -5.6368    3.2913 C   0  0  0  0  0  3  0  0  0  0  0  0
   -0.5054   -4.4479    2.6092 C   0  0  0  0  0  3  0  0  0  0  0  0
   -2.0961   -2.0194    1.5441 C   0  0  0  0  0  3  0  0  0  0  0  0
   -3.0345   -2.6554    2.3501 C   0  0  0  0  0  3  0  0  0  0  0  0
   -4.3752   -2.7105    1.9819 C   0  0  0  0  0  3  0  0  0  0  0  0
   -4.7718   -2.1128    0.7933 C   0  0  0  0  0  3  0  0  0  0  0  0
   -3.8572   -1.4442   -0.0151 C   0  0  0  0  0  3  0  0  0  0  0  0
   -2.5274   -1.3863    0.3771 C   0  0  0  0  0  3  0  0  0  0  0  0
    0.4035   -2.5612   -0.3267 C   0  0  0  0  0  3  0  0  0  0  0  0
    1.2965   -2.9180   -1.3027 C   0  0  0  0  0  3  0  0  0  0  0  0
    2.6870   -2.8734   -1.0138 C   0  0  0  0  0  3  0  0  0  0  0  0
    3.6629   -3.2124   -1.9798 C   0  0  0  0  0  3  0  0  0  0  0  0
    5.0025   -3.2165   -1.6885 C   0  0  0  0  0  3  0  0  0  0  0  0
    5.4130   -2.8617   -0.3882 C   0  0  0  0  0  3  0  0  0  0  0  0
    4.5006   -2.5057    0.5634 C   0  0  0  0  0  3  0  0  0  0  0  0
    3.1112   -2.5048    0.2910 C   0  0  0  0  0  3  0  0  0  0  0  0
    3.2438   -2.8857    3.4005 C   0  0  0  0  0  3  0  0  0  0  0  0
    3.2130   -4.2231    2.9367 C   0  0  0  0  0  3  0  0  0  0  0  0
    3.7912   -5.2341    3.6495 C   0  0  0  0  0  3  0  0  0  0  0  0
    4.4471   -4.9761    4.8696 C   0  0  0  0  0  3  0  0  0  0  0  0
    4.4691   -3.6917    5.3491 C   0  0  0  0  0  3  0  0  0  0  0  0
    3.8622   -2.6207    4.6525 C   0  0  0  0  0  3  0  0  0  0  0  0
    3.8461   -1.2975    5.1724 C   0  0  0  0  0  3  0  0  0  0  0  0
    3.2318   -0.3092    4.4490 C   0  0  0  0  0  3  0  0  0  0  0  0
    1.6392    0.5682   -0.4618 C   0  0  0  0  0  3  0  0  0  0  0  0
    2.2329    0.4400   -1.7111 C   0  0  0  0  0  3  0  0  0  0  0  0
   -0.5698    0.5487    2.8556 Ru  0  0  0  0  0  0  0  0  0  0  0  0
   -0.6716   -6.9547    2.6793 C   0  0  0  0  0  0  0  0  0  0  0  0
    1.2400   -4.3455    6.5291 C   0  0  0  0  0  0  0  0  0  0  0  0
   -4.3090   -0.7919   -1.2923 C   0  0  0  0  0  0  0  0  0  0  0  0
   -5.3668   -3.3978    2.8785 C   0  0  0  0  0  0  0  0  0  0  0  0
    1.3856    0.4004   -2.9517 C   0  0  0  0  0  0  0  0  0  0  0  0
    5.9138    0.4159   -0.7736 C   0  0  0  0  0  0  0  0  0  0  0  0
    4.1918    5.3211    1.1491 C   0  0  0  0  0  0  0  0  0  0  0  0
    2.1207    4.8651    5.6925 C   0  0  0  0  0  0  0  0  0  0  0  0
    4.4794   -0.9776    6.4982 C   0  0  0  0  0  0  0  0  0  0  0  0
    0.7977   -3.3718   -2.6467 C   0  0  0  0  0  0  0  0  0  0  0  0
    6.0342   -3.5899   -2.7143 C   0  0  0  0  0  0  0  0  0  0  0  0
    5.0839   -6.1097    5.6216 C   0  0  0  0  0  0  0  0  0  0  0  0
    4.0913    0.2815   -2.7647 H   0  0  0  0  0  0  0  0  0  0  0  0
    4.4033    0.5484    1.4864 H   0  0  0  0  0  0  0  0  0  0  0  0
    3.2957    2.8074    0.8832 H   0  0  0  0  0  0  0  0  0  0  0  0
    3.4601    6.0262    3.6680 H   0  0  0  0  0  0  0  0  0  0  0  0
    1.5324    2.3705    4.7535 H   0  0  0  0  0  0  0  0  0  0  0  0
    0.7893   -2.2610    4.8283 H   0  0  0  0  0  0  0  0  0  0  0  0
    0.4218   -6.5151    5.1079 H   0  0  0  0  0  0  0  0  0  0  0  0
   -0.9519   -4.4647    1.6220 H   0  0  0  0  0  0  0  0  0  0  0  0
   -2.7215   -3.1054    3.2837 H   0  0  0  0  0  0  0  0  0  0  0  0
   -5.8137   -2.1489    0.4977 H   0  0  0  0  0  0  0  0  0  0  0  0
   -1.8185   -0.8140   -0.2071 H   0  0  0  0  0  0  0  0  0  0  0  0
   -0.6556   -2.6258   -0.5382 H   0  0  0  0  0  0  0  0  0  0  0  0
    3.3404   -3.4799   -2.9779 H   0  0  0  0  0  0  0  0  0  0  0  0
    6.4704   -2.8654   -0.1530 H   0  0  0  0  0  0  0  0  0  0  0  0
    4.8412   -2.2188    1.5495 H   0  0  0  0  0  0  0  0  0  0  0  0
    2.7040   -4.4405    2.0070 H   0  0  0  0  0  0  0  0  0  0  0  0
    3.7487   -6.2517    3.2808 H   0  0  0  0  0  0  0  0  0  0  0  0
    4.9589   -3.4925    6.2938 H   0  0  0  0  0  0  0  0  0  0  0  0
    3.2084    0.7029    4.8325 H   0  0  0  0  0  0  0  0  0  0  0  0
    0.5636    0.6326   -0.3596 H   0  0  0  0  0  0  0  0  0  0  0  0
    0.0893   -7.7095    2.8790 H   0  0  0  0  0  0  0  0  0  0  0  0
   -0.7998   -6.8584    1.6014 H   0  0  0  0  0  0  0  0  0  0  0  0
   -1.6132   -7.3068    3.1056 H   0  0  0  0  0  0  0  0  0  0  0  0
    0.5477   -3.8540    7.2155 H   0  0  0  0  0  0  0  0  0  0  0  0
    2.1683   -3.7750    6.5242 H   0  0  0  0  0  0  0  0  0  0  0  0
    1.4484   -5.3523    6.8940 H   0  0  0  0  0  0  0  0  0  0  0  0
   -5.3111   -0.3730   -1.1792 H   0  0  0  0  0  0  0  0  0  0  0  0
   -4.3435   -1.5274   -2.0968 H   0  0  0  0  0  0  0  0  0  0  0  0
   -3.6220    0.0008   -1.5877 H   0  0  0  0  0  0  0  0  0  0  0  0
   -6.3842   -3.2687    2.5101 H   0  0  0  0  0  0  0  0  0  0  0  0
   -5.3032   -2.9909    3.8895 H   0  0  0  0  0  0  0  0  0  0  0  0
   -5.1482   -4.4648    2.9349 H   0  0  0  0  0  0  0  0  0  0  0  0
    0.4790   -0.1770   -2.7728 H   0  0  0  0  0  0  0  0  0  0  0  0
    1.9345   -0.0426   -3.7837 H   0  0  0  0  0  0  0  0  0  0  0  0
    1.0912    1.4120   -3.2379 H   0  0  0  0  0  0  0  0  0  0  0  0
    6.3731    0.1156    0.1678 H   0  0  0  0  0  0  0  0  0  0  0  0
    6.2777    1.4130   -1.0300 H   0  0  0  0  0  0  0  0  0  0  0  0
    6.2315   -0.2712   -1.5581 H   0  0  0  0  0  0  0  0  0  0  0  0
    4.7944    4.6899    0.4950 H   0  0  0  0  0  0  0  0  0  0  0  0
    4.8362    6.0588    1.6265 H   0  0  0  0  0  0  0  0  0  0  0  0
    3.4669    5.8530    0.5300 H   0  0  0  0  0  0  0  0  0  0  0  0
    2.0792    5.9525    5.6216 H   0  0  0  0  0  0  0  0  0  0  0  0
    2.8812    4.6041    6.4308 H   0  0  0  0  0  0  0  0  0  0  0  0
    1.1604    4.4971    6.0529 H   0  0  0  0  0  0  0  0  0  0  0  0
    5.5477   -1.1990    6.4809 H   0  0  0  0  0  0  0  0  0  0  0  0
    4.3537    0.0798    6.7308 H   0  0  0  0  0  0  0  0  0  0  0  0
    4.0246   -1.5634    7.2989 H   0  0  0  0  0  0  0  0  0  0  0  0
   -0.2915   -3.3436   -2.6739 H   0  0  0  0  0  0  0  0  0  0  0  0
    1.1208   -4.3934   -2.8533 H   0  0  0  0  0  0  0  0  0  0  0  0
    1.1795   -2.7267   -3.4396 H   0  0  0  0  0  0  0  0  0  0  0  0
    6.5701   -4.4861   -2.4013 H   0  0  0  0  0  0  0  0  0  0  0  0
    6.7664   -2.7891   -2.8291 H   0  0  0  0  0  0  0  0  0  0  0  0
    5.5719   -3.7822   -3.6838 H   0  0  0  0  0  0  0  0  0  0  0  0
    5.8344   -6.6024    5.0018 H   0  0  0  0  0  0  0  0  0  0  0  0
    4.3308   -6.8540    5.8873 H   0  0  0  0  0  0  0  0  0  0  0  0
    5.5618   -5.7561    6.5348 H   0  0  0  0  0  0  0  0  0  0  0  0
   -0.5565    0.2318    4.5764 H   0  0  0  0  0  0  0  0  0  0  0  0
   -0.8611    0.9675    1.3452 H   0  0  0  0  0  0  0  0  0  0  0  0
   -2.6907    0.5492    3.1092 N   0  0  0  0  0  4  0  0  0  0  0  0
   -3.2420    1.8612    3.4654 C   0  0  0  0  0  0  0  0  0  0  0  0
   -4.6390    2.0713    2.9332 C   0  0  0  0  0  3  0  0  0  0  0  0
   -5.6429    2.5595    3.7624 C   0  0  0  0  0  3  0  0  0  0  0  0
   -6.9182    2.7811    3.2683 C   0  0  0  0  0  3  0  0  0  0  0  0
   -7.2041    2.5171    1.9381 C   0  0  0  0  0  3  0  0  0  0  0  0
   -6.2081    2.0339    1.1040 C   0  0  0  0  0  3  0  0  0  0  0  0
   -4.9324    1.8152    1.5971 C   0  0  0  0  0  3  0  0  0  0  0  0
   -2.2944    2.9561    2.9372 C   0  0  0  0  0  0  0  0  0  0  0  0
   -0.9408    2.5889    3.3676 N   0  0  0  0  0  4  0  0  0  0  0  0
   -2.7542    4.3150    3.4085 C   0  0  0  0  0  3  0  0  0  0  0  0
   -2.3679    4.8370    4.6394 C   0  0  0  0  0  3  0  0  0  0  0  0
   -2.8527    6.0612    5.0695 C   0  0  0  0  0  3  0  0  0  0  0  0
   -3.7362    6.7795    4.2795 C   0  0  0  0  0  3  0  0  0  0  0  0
   -4.1270    6.2679    3.0521 C   0  0  0  0  0  3  0  0  0  0  0  0
   -3.6362    5.0469    2.6198 C   0  0  0  0  0  3  0  0  0  0  0  0
   -2.9372   -0.1098    3.8574 H   0  0  0  0  0  0  0  0  0  0  0  0
   -3.1260    0.2071    2.2577 H   0  0  0  0  0  0  0  0  0  0  0  0
   -3.2560    1.9257    4.5609 H   0  0  0  0  0  0  0  0  0  0  0  0
   -5.4218    2.7673    4.8022 H   0  0  0  0  0  0  0  0  0  0  0  0
   -7.6916    3.1606    3.9243 H   0  0  0  0  0  0  0  0  0  0  0  0
   -8.2005    2.6891    1.5515 H   0  0  0  0  0  0  0  0  0  0  0  0
   -6.4243    1.8326    0.0621 H   0  0  0  0  0  0  0  0  0  0  0  0
   -4.1610    1.4505    0.9296 H   0  0  0  0  0  0  0  0  0  0  0  0
   -2.3056    2.9266    1.8401 H   0  0  0  0  0  0  0  0  0  0  0  0
   -0.2651    3.2377    2.9735 H   0  0  0  0  0  0  0  0  0  0  0  0
   -0.8850    2.6583    4.3797 H   0  0  0  0  0  0  0  0  0  0  0  0
   -1.6907    4.2922    5.2859 H   0  0  0  0  0  0  0  0  0  0  0  0
   -2.5400    6.4521    6.0298 H   0  0  0  0  0  0  0  0  0  0  0  0
   -4.1182    7.7337    4.6197 H   0  0  0  0  0  0  0  0  0  0  0  0
   -4.8168    6.8214    2.4275 H   0  0  0  0  0  0  0  0  0  0  0  0
   -3.9461    4.6517    1.6598 H   0  0  0  0  0  0  0  0  0  0  0  0
   -2.6432   -0.1222    5.7504 O   0  0  0  0  0  0  0  0  0  0  0  0
   -1.4326    0.0630    6.0489 C   0  0  0  0  0  0  0  0  0  0  0  0
   -0.6715   -1.1126    6.6394 C   0  0  0  0  0  0  0  0  0  0  0  0
   -1.0719   -1.2674    8.0997 C   0  0  0  0  0  0  0  0  0  0  0  0
   -0.2929   -2.3384    8.7389 N   0  0  0  0  0  0  0  0  0  0  0  0
    1.0202   -1.8484    9.1756 C   0  0  0  0  0  0  0  0  0  0  0  0
   -1.0164   -2.9271    9.8738 C   0  0  0  0  0  0  0  0  0  0  0  0
   -1.0330    1.3796    6.6885 C   0  0  0  0  0  3  0  0  0  0  0  0
    0.2804    1.6602    7.0339 C   0  0  0  0  0  3  0  0  0  0  0  0
    0.5596    2.7947    7.8156 C   0  0  0  0  0  3  0  0  0  0  0  0
   -0.4323    3.6168    8.1937 C   0  0  0  0  0  3  0  0  0  0  0  0
   -1.7282    3.3530    7.8205 C   0  0  0  0  0  3  0  0  0  0  0  0
   -2.0091    2.2248    7.0805 C   0  0  0  0  0  3  0  0  0  0  0  0
   -0.9603   -2.0032    6.1107 H   0  0  0  0  0  0  0  0  0  0  0  0
    0.3922   -0.9792    6.5545 H   0  0  0  0  0  0  0  0  0  0  0  0
   -0.9488   -0.3376    8.6302 H   0  0  0  0  0  0  0  0  0  0  0  0
   -2.1129   -1.5390    8.1348 H   0  0  0  0  0  0  0  0  0  0  0  0
    0.9382   -1.0852    9.9302 H   0  0  0  0  0  0  0  0  0  0  0  0
    1.5819   -2.6773    9.5669 H   0  0  0  0  0  0  0  0  0  0  0  0
    1.5419   -1.4482    8.3254 H   0  0  0  0  0  0  0  0  0  0  0  0
   -1.2272   -2.2071   10.6458 H   0  0  0  0  0  0  0  0  0  0  0  0
   -1.9398   -3.3423    9.5122 H   0  0  0  0  0  0  0  0  0  0  0  0
   -0.4164   -3.7189   10.2845 H   0  0  0  0  0  0  0  0  0  0  0  0
    1.0825    1.0196    6.7255 H   0  0  0  0  0  0  0  0  0  0  0  0
    1.5749    2.9781    8.1098 H   0  0  0  0  0  0  0  0  0  0  0  0
   -0.2212    4.4820    8.7928 H   0  0  0  0  0  0  0  0  0  0  0  0
   -2.5238    4.0076    8.1199 H   0  0  0  0  0  0  0  0  0  0  0  0
   -3.0271    1.9891    6.8361 H   0  0  0  0  0  0  0  0  0  0  0  0
  1  2  1  0  0  0  0
  1 46  1  0  0  0  0
  1 60  1  0  0  0  0
  2  3  1  0  0  0  0
  2 53  1  0  0  0  0
  3  4  1  0  0  0  0
  3 61  1  0  0  0  0
  4  5  1  0  0  0  0
  4 45  1  0  0  0  0
  5  6  1  0  0  0  0
  5 12  1  0  0  0  0
  5 47  1  0  0  0  0
  6  7  1  0  0  0  0
  6 11  1  0  0  0  0
  7  8  1  0  0  0  0
  7 62  1  0  0  0  0
  8  9  1  0  0  0  0
  8 54  1  0  0  0  0
  9 10  1  0  0  0  0
  9 63  1  0  0  0  0
 10 11  1  0  0  0  0
 10 55  1  0  0  0  0
 11 64  1  0  0  0  0
 12 13  1  0  0  0  0
 12 44  1  0  0  0  0
 13 14  1  0  0  0  0
 13 37  1  0  0  0  0
 14 15  1  0  0  0  0
 14 36  1  0  0  0  0
 15 16  1  0  0  0  0
 15 29  1  0  0  0  0
 16 17  1  0  0  0  0
 16 23  1  0  0  0  0
 17 18  1  0  0  0  0
 17 22  1  0  0  0  0
 18 19  1  0  0  0  0
 18 65  1  0  0  0  0
 19 20  1  0  0  0  0
 19 49  1  0  0  0  0
 20 21  1  0  0  0  0
 20 66  1  0  0  0  0
 21 22  1  0  0  0  0
 21 48  1  0  0  0  0
 22 67  1  0  0  0  0
 23 24  1  0  0  0  0
 23 28  1  0  0  0  0
 24 25  1  0  0  0  0
 24 68  1  0  0  0  0
 25 26  1  0  0  0  0
 25 51  1  0  0  0  0
 26 27  1  0  0  0  0
 26 69  1  0  0  0  0
 27 28  1  0  0  0  0
 27 50  1  0  0  0  0
 28 70  1  0  0  0  0
 29 30  1  0  0  0  0
 29 71  1  0  0  0  0
 30 31  1  0  0  0  0
 30 57  1  0  0  0  0
 31 32  1  0  0  0  0
 31 36  1  0  0  0  0
 32 33  1  0  0  0  0
 32 72  1  0  0  0  0
 33 34  1  0  0  0  0
 33 58  1  0  0  0  0
 34 35  1  0  0  0  0
 34 73  1  0  0  0  0
 35 36  1  0  0  0  0
 35 74  1  0  0  0  0
 37 38  1  0  0  0  0
 37 42  1  0  0  0  0
 38 39  1  0  0  0  0
 38 75  1  0  0  0  0
 39 40  1  0  0  0  0
 39 76  1  0  0  0  0
 40 41  1  0  0  0  0
 40 59  1  0  0  0  0
 41 42  1  0  0  0  0
 41 77  1  0  0  0  0
 42 43  1  0  0  0  0
 43 44  1  0  0  0  0
 43 56  1  0  0  0  0
 44 78  1  0  0  0  0
 45 46  1  0  0  0  0
 45 79  1  0  0  0  0
 46 52  1  0  0  0  0
 47 16  1  0  0  0  0
 47118  1  0  0  0  0
 48 80  1  0  0  0  0
 48 81  1  0  0  0  0
 48 82  1  0  0  0  0
 49 83  1  0  0  0  0
 49 84  1  0  0  0  0
 49 85  1  0  0  0  0
 50 86  1  0  0  0  0
 50 87  1  0  0  0  0
 50 88  1  0  0  0  0
 51 89  1  0  0  0  0
 51 90  1  0  0  0  0
 51 91  1  0  0  0  0
 52 92  1  0  0  0  0
 52 93  1  0  0  0  0
 52 94  1  0  0  0  0
 53 95  1  0  0  0  0
 53 96  1  0  0  0  0
 53 97  1  0  0  0  0
 54 98  1  0  0  0  0
 54 99  1  0  0  0  0
 54100  1  0  0  0  0
 55101  1  0  0  0  0
 55102  1  0  0  0  0
 55103  1  0  0  0  0
 56104  1  0  0  0  0
 56105  1  0  0  0  0
 56106  1  0  0  0  0
 57107  1  0  0  0  0
 57108  1  0  0  0  0
 57109  1  0  0  0  0
 58110  1  0  0  0  0
 58111  1  0  0  0  0
 58112  1  0  0  0  0
 59113  1  0  0  0  0
 59114  1  0  0  0  0
 59115  1  0  0  0  0
116 47  1  0  0  0  0
117 47  1  0  0  0  0
118119  1  0  0  0  0
118134  1  0  0  0  0
118135  1  0  0  0  0
119120  1  0  0  0  0
119126  1  0  0  0  0
119136  1  0  0  0  0
120121  1  0  0  0  0
120125  1  0  0  0  0
121122  1  0  0  0  0
121137  1  0  0  0  0
122123  1  0  0  0  0
122138  1  0  0  0  0
123124  1  0  0  0  0
123139  1  0  0  0  0
124125  1  0  0  0  0
124140  1  0  0  0  0
125141  1  0  0  0  0
126127  1  0  0  0  0
126128  1  0  0  0  0
126142  1  0  0  0  0
127143  1  0  0  0  0
127144  1  0  0  0  0
127 47  1  0  0  0  0
128129  1  0  0  0  0
128133  1  0  0  0  0
129130  1  0  0  0  0
129145  1  0  0  0  0
130131  1  0  0  0  0
130146  1  0  0  0  0
131132  1  0  0  0  0
131147  1  0  0  0  0
132133  1  0  0  0  0
132148  1  0  0  0  0
133149  1  0  0  0  0
150151  2  0  0  0  0
150134  1  0  0  0  0
151152  1  0  0  0  0
151157  1  0  0  0  0
151116  1  0  0  0  0
152153  1  0  0  0  0
152163  1  0  0  0  0
152164  1  0  0  0  0
153154  1  0  0  0  0
153165  1  0  0  0  0
153166  1  0  0  0  0
154155  1  0  0  0  0
154156  1  0  0  0  0
155167  1  0  0  0  0
155168  1  0  0  0  0
155169  1  0  0  0  0
156170  1  0  0  0  0
156171  1  0  0  0  0
156172  1  0  0  0  0
157158  1  0  0  0  0
157162  1  0  0  0  0
158159  1  0  0  0  0
158173  1  0  0  0  0
159160  1  0  0  0  0
159174  1  0  0  0  0
160161  1  0  0  0  0
160175  1  0  0  0  0
161162  1  0  0  0  0
161176  1  0  0  0  0
162177  1  0  0  0  0
M  END
