 energy: -248.721375869932 gnorm: 0.000863643419 xtb: 6.7.1 (edcfbbe)
          07072520163D

170183  0     0  0            999 V2000
    3.5948    0.6708   -1.2892 C   0  0  0  0  0  3  0  0  0  0  0  0
    4.4565    0.7574   -0.2016 C   0  0  0  0  0  3  0  0  0  0  0  0
    3.9316    0.6581    1.0803 C   0  0  0  0  0  3  0  0  0  0  0  0
    2.5635    0.4868    1.2696 C   0  0  0  0  0  3  0  0  0  0  0  0
    1.8947    0.3001    2.9782 P   0  0  0  0  0  4  0  0  0  0  0  0
    2.4771    1.8921    3.7003 C   0  0  0  0  0  3  0  0  0  0  0  0
    2.5682    3.0260    2.8996 C   0  0  0  0  0  3  0  0  0  0  0  0
    2.8601    4.2667    3.4539 C   0  0  0  0  0  3  0  0  0  0  0  0
    3.0579    4.3614    4.8262 C   0  0  0  0  0  3  0  0  0  0  0  0
    2.9466    3.2472    5.6510 C   0  0  0  0  0  3  0  0  0  0  0  0
    2.6345    2.0206    5.0797 C   0  0  0  0  0  3  0  0  0  0  0  0
    3.1490   -0.9356    3.5187 C   0  0  0  0  0  3  0  0  0  0  0  0
    3.0862   -2.1832    2.8541 C   0  0  0  0  0  3  0  0  0  0  0  0
    2.2596   -2.4364    1.6473 C   0  0  0  0  0  3  0  0  0  0  0  0
    0.8546   -2.5879    1.5782 C   0  0  0  0  0  3  0  0  0  0  0  0
   -0.1507   -2.2754    3.0914 P   0  0  0  0  0  4  0  0  0  0  0  0
    0.4420   -3.6336    4.1881 C   0  0  0  0  0  3  0  0  0  0  0  0
    1.2127   -4.7007    3.7355 C   0  0  0  0  0  3  0  0  0  0  0  0
    1.5016   -5.7633    4.5811 C   0  0  0  0  0  3  0  0  0  0  0  0
    0.9956   -5.7534    5.8764 C   0  0  0  0  0  3  0  0  0  0  0  0
    0.2026   -4.7087    6.3362 C   0  0  0  0  0  3  0  0  0  0  0  0
   -0.0614   -3.6446    5.4820 C   0  0  0  0  0  3  0  0  0  0  0  0
   -1.7616   -3.0440    2.6218 C   0  0  0  0  0  3  0  0  0  0  0  0
   -2.6073   -2.3037    1.7973 C   0  0  0  0  0  3  0  0  0  0  0  0
   -3.8394   -2.7995    1.3907 C   0  0  0  0  0  3  0  0  0  0  0  0
   -4.2371   -4.0520    1.8428 C   0  0  0  0  0  3  0  0  0  0  0  0
   -3.4169   -4.8067    2.6737 C   0  0  0  0  0  3  0  0  0  0  0  0
   -2.1804   -4.2989    3.0527 C   0  0  0  0  0  3  0  0  0  0  0  0
    0.2446   -2.8567    0.3605 C   0  0  0  0  0  3  0  0  0  0  0  0
    0.9566   -2.9856   -0.8331 C   0  0  0  0  0  3  0  0  0  0  0  0
    2.3208   -2.8447   -0.7607 C   0  0  0  0  0  3  0  0  0  0  0  0
    2.9545   -2.5952    0.4622 C   0  0  0  0  0  3  0  0  0  0  0  0
    4.0347   -3.1230    3.2136 C   0  0  0  0  0  3  0  0  0  0  0  0
    5.0091   -2.8734    4.1879 C   0  0  0  0  0  3  0  0  0  0  0  0
    5.0889   -1.6546    4.8158 C   0  0  0  0  0  3  0  0  0  0  0  0
    4.1381   -0.6963    4.4625 C   0  0  0  0  0  3  0  0  0  0  0  0
    1.7172    0.4164    0.1712 C   0  0  0  0  0  3  0  0  0  0  0  0
    2.2260    0.4962   -1.1190 C   0  0  0  0  0  3  0  0  0  0  0  0
   -0.3163   -0.0180    3.5173 Ru  0  0  0  0  0  0  0  0  0  0  0  0
    4.3100   -2.5026    0.2621 O   0  0  0  0  0  0  0  0  0  0  0  0
    4.5101   -2.6976   -1.1266 C   0  0  0  0  0  0  0  0  0  0  0  0
    3.2578   -2.9119   -1.7585 O   0  0  0  0  0  0  0  0  0  0  0  0
    5.8311   -3.9625    4.3066 O   0  0  0  0  0  0  0  0  0  0  0  0
    5.3408   -4.9184    3.3806 C   0  0  0  0  0  0  0  0  0  0  0  0
    4.2203   -4.3823    2.6983 O   0  0  0  0  0  0  0  0  0  0  0  0
    3.1482    3.3815    7.1350 C   0  0  0  0  0  0  0  0  0  0  0  0
    2.9685    5.4920    2.5900 C   0  0  0  0  0  0  0  0  0  0  0  0
    5.9375    0.9316   -0.3913 C   0  0  0  0  0  0  0  0  0  0  0  0
    1.3276    0.3710   -2.3168 C   0  0  0  0  0  0  0  0  0  0  0  0
   -4.7361   -2.0060    0.4815 C   0  0  0  0  0  0  0  0  0  0  0  0
   -3.8539   -6.1699    3.1321 C   0  0  0  0  0  0  0  0  0  0  0  0
    2.2975   -6.9403    4.0903 C   0  0  0  0  0  0  0  0  0  0  0  0
   -0.3702   -4.7446    7.7248 C   0  0  0  0  0  0  0  0  0  0  0  0
    3.9962    0.7336   -2.2940 H   0  0  0  0  0  0  0  0  0  0  0  0
    4.5909    0.7084    1.9386 H   0  0  0  0  0  0  0  0  0  0  0  0
    2.4188    2.9362    1.8312 H   0  0  0  0  0  0  0  0  0  0  0  0
    3.2966    5.3235    5.2638 H   0  0  0  0  0  0  0  0  0  0  0  0
    2.5065    1.1493    5.7096 H   0  0  0  0  0  0  0  0  0  0  0  0
    1.5762   -4.7152    2.7154 H   0  0  0  0  0  0  0  0  0  0  0  0
    1.2092   -6.5872    6.5347 H   0  0  0  0  0  0  0  0  0  0  0  0
   -0.6838   -2.8211    5.8103 H   0  0  0  0  0  0  0  0  0  0  0  0
   -2.2680   -1.3329    1.4579 H   0  0  0  0  0  0  0  0  0  0  0  0
   -5.1986   -4.4481    1.5387 H   0  0  0  0  0  0  0  0  0  0  0  0
   -1.5426   -4.8987    3.6885 H   0  0  0  0  0  0  0  0  0  0  0  0
   -0.8299   -2.9749    0.3260 H   0  0  0  0  0  0  0  0  0  0  0  0
    0.4588   -3.1867   -1.7705 H   0  0  0  0  0  0  0  0  0  0  0  0
    5.8591   -1.4462    5.5439 H   0  0  0  0  0  0  0  0  0  0  0  0
    4.2169    0.2794    4.9216 H   0  0  0  0  0  0  0  0  0  0  0  0
    0.6584    0.2722    0.3455 H   0  0  0  0  0  0  0  0  0  0  0  0
    4.9885   -1.8030   -1.5578 H   0  0  0  0  0  0  0  0  0  0  0  0
    5.1555   -3.5769   -1.2865 H   0  0  0  0  0  0  0  0  0  0  0  0
    6.1322   -5.1619    2.6529 H   0  0  0  0  0  0  0  0  0  0  0  0
    5.0440   -5.8318    3.9217 H   0  0  0  0  0  0  0  0  0  0  0  0
    3.0787    2.4114    7.6301 H   0  0  0  0  0  0  0  0  0  0  0  0
    2.3941    4.0415    7.5642 H   0  0  0  0  0  0  0  0  0  0  0  0
    4.1269    3.8132    7.3463 H   0  0  0  0  0  0  0  0  0  0  0  0
    2.7146    5.2611    1.5557 H   0  0  0  0  0  0  0  0  0  0  0  0
    3.9870    5.8840    2.6174 H   0  0  0  0  0  0  0  0  0  0  0  0
    2.3005    6.2750    2.9502 H   0  0  0  0  0  0  0  0  0  0  0  0
    6.4709    0.0827    0.0381 H   0  0  0  0  0  0  0  0  0  0  0  0
    6.2815    1.8334    0.1183 H   0  0  0  0  0  0  0  0  0  0  0  0
    6.1931    1.0101   -1.4478 H   0  0  0  0  0  0  0  0  0  0  0  0
    0.2876    0.2711   -2.0062 H   0  0  0  0  0  0  0  0  0  0  0  0
    1.6032   -0.5115   -2.8980 H   0  0  0  0  0  0  0  0  0  0  0  0
    1.4228    1.2431   -2.9640 H   0  0  0  0  0  0  0  0  0  0  0  0
   -5.0567   -2.6170   -0.3642 H   0  0  0  0  0  0  0  0  0  0  0  0
   -4.2201   -1.1254    0.0973 H   0  0  0  0  0  0  0  0  0  0  0  0
   -5.6293   -1.6854    1.0179 H   0  0  0  0  0  0  0  0  0  0  0  0
   -4.9104   -6.1672    3.4014 H   0  0  0  0  0  0  0  0  0  0  0  0
   -3.2686   -6.4942    3.9921 H   0  0  0  0  0  0  0  0  0  0  0  0
   -3.7137   -6.8962    2.3290 H   0  0  0  0  0  0  0  0  0  0  0  0
    2.8032   -6.6977    3.1550 H   0  0  0  0  0  0  0  0  0  0  0  0
    1.6358   -7.7902    3.9129 H   0  0  0  0  0  0  0  0  0  0  0  0
    3.0357   -7.2429    4.8327 H   0  0  0  0  0  0  0  0  0  0  0  0
    0.2847   -4.2142    8.4165 H   0  0  0  0  0  0  0  0  0  0  0  0
   -0.4731   -5.7732    8.0755 H   0  0  0  0  0  0  0  0  0  0  0  0
   -1.3484   -4.2634    7.7423 H   0  0  0  0  0  0  0  0  0  0  0  0
    0.0035    0.0060    5.2371 H   0  0  0  0  0  0  0  0  0  0  0  0
   -0.7927    0.1599    2.0063 H   0  0  0  0  0  0  0  0  0  0  0  0
   -2.3450   -0.1109    4.1960 N   0  0  0  0  0  4  0  0  0  0  0  0
   -2.9093    1.2284    4.4083 C   0  0  0  0  0  0  0  0  0  0  0  0
   -4.3978    1.2919    4.1675 C   0  0  0  0  0  3  0  0  0  0  0  0
   -5.2406    1.8667    5.1132 C   0  0  0  0  0  3  0  0  0  0  0  0
   -6.6006    1.9686    4.8726 C   0  0  0  0  0  3  0  0  0  0  0  0
   -7.1336    1.4985    3.6830 C   0  0  0  0  0  3  0  0  0  0  0  0
   -6.3011    0.9232    2.7362 C   0  0  0  0  0  3  0  0  0  0  0  0
   -4.9407    0.8210    2.9767 C   0  0  0  0  0  3  0  0  0  0  0  0
   -2.1859    2.2364    3.4927 C   0  0  0  0  0  0  0  0  0  0  0  0
   -0.7441    2.0667    3.7018 N   0  0  0  0  0  4  0  0  0  0  0  0
   -2.6982    3.6343    3.7430 C   0  0  0  0  0  3  0  0  0  0  0  0
   -2.2052    4.4292    4.7731 C   0  0  0  0  0  3  0  0  0  0  0  0
   -2.7343    5.6876    5.0085 C   0  0  0  0  0  3  0  0  0  0  0  0
   -3.7688    6.1688    4.2218 C   0  0  0  0  0  3  0  0  0  0  0  0
   -4.2664    5.3857    3.1925 C   0  0  0  0  0  3  0  0  0  0  0  0
   -3.7320    4.1303    2.9547 C   0  0  0  0  0  3  0  0  0  0  0  0
   -2.3133   -0.5683    5.1154 H   0  0  0  0  0  0  0  0  0  0  0  0
   -2.9523   -0.6666    3.6007 H   0  0  0  0  0  0  0  0  0  0  0  0
   -2.7064    1.5073    5.4503 H   0  0  0  0  0  0  0  0  0  0  0  0
   -4.8257    2.2377    6.0425 H   0  0  0  0  0  0  0  0  0  0  0  0
   -7.2466    2.4188    5.6160 H   0  0  0  0  0  0  0  0  0  0  0  0
   -8.1962    1.5814    3.4927 H   0  0  0  0  0  0  0  0  0  0  0  0
   -6.7124    0.5607    1.8025 H   0  0  0  0  0  0  0  0  0  0  0  0
   -4.2974    0.3804    2.2250 H   0  0  0  0  0  0  0  0  0  0  0  0
   -2.3924    1.9595    2.4508 H   0  0  0  0  0  0  0  0  0  0  0  0
   -0.2300    2.6262    3.0270 H   0  0  0  0  0  0  0  0  0  0  0  0
   -0.4874    2.3933    4.6294 H   0  0  0  0  0  0  0  0  0  0  0  0
   -1.4008    4.0790    5.4084 H   0  0  0  0  0  0  0  0  0  0  0  0
   -2.3382    6.2925    5.8144 H   0  0  0  0  0  0  0  0  0  0  0  0
   -4.1838    7.1506    4.4103 H   0  0  0  0  0  0  0  0  0  0  0  0
   -5.0732    5.7529    2.5708 H   0  0  0  0  0  0  0  0  0  0  0  0
   -4.1259    3.5228    2.1491 H   0  0  0  0  0  0  0  0  0  0  0  0
   -0.1825    1.6681    7.0630 C   0  0  0  0  0  0  0  0  0  0  0  0
   -0.5042    0.1945    6.8700 C   0  0  0  0  0  0  0  0  0  0  0  0
    0.5194   -0.7147    7.5264 C   0  0  0  0  0  3  0  0  0  0  0  0
    0.4333   -0.8724    8.8909 C   0  0  0  0  0  3  0  0  0  0  0  0
   -0.5188   -0.0587    9.7387 C   0  0  0  0  0  0  0  0  0  0  0  0
   -1.7329   -0.7013   10.1761 N   0  0  0  0  0  0  0  0  0  0  0  0
   -2.6964    0.0634   10.9792 C   0  0  0  0  0  0  0  0  0  0  0  0
   -2.1019    0.4297   12.3313 C   0  0  0  0  0  0  0  0  0  0  0  0
   -3.1788    1.2951   10.2269 C   0  0  0  0  0  0  0  0  0  0  0  0
   -2.0784   -2.0511    9.7107 C   0  0  0  0  0  0  0  0  0  0  0  0
   -2.2041   -3.0060   10.8893 C   0  0  0  0  0  0  0  0  0  0  0  0
   -3.3285   -2.0389    8.8431 C   0  0  0  0  0  0  0  0  0  0  0  0
   -0.2175    1.0958   10.1025 O   0  0  0  0  0  0  0  0  0  0  0  0
    1.3224   -1.6987    9.5639 C   0  0  0  0  0  3  0  0  0  0  0  0
    2.2851   -2.4034    8.8624 C   0  0  0  0  0  3  0  0  0  0  0  0
    2.3390   -2.2448    7.5150 C   0  0  0  0  0  3  0  0  0  0  0  0
    3.2653   -2.9495    6.8175 F   0  0  0  0  0  0  0  0  0  0  0  0
    1.4955   -1.4167    6.8354 C   0  0  0  0  0  3  0  0  0  0  0  0
   -1.7153   -0.1574    6.8895 O   0  0  0  0  0  0  0  0  0  0  0  0
    0.6844    1.9829    6.5122 H   0  0  0  0  0  0  0  0  0  0  0  0
    0.0057    1.8298    8.1090 H   0  0  0  0  0  0  0  0  0  0  0  0
   -1.0398    2.2574    6.7913 H   0  0  0  0  0  0  0  0  0  0  0  0
   -3.5344   -0.5942   11.1393 H   0  0  0  0  0  0  0  0  0  0  0  0
   -1.2567    1.0797   12.1952 H   0  0  0  0  0  0  0  0  0  0  0  0
   -2.8400    0.9357   12.9271 H   0  0  0  0  0  0  0  0  0  0  0  0
   -1.7810   -0.4545   12.8523 H   0  0  0  0  0  0  0  0  0  0  0  0
   -3.5096    1.0185    9.2420 H   0  0  0  0  0  0  0  0  0  0  0  0
   -3.9932    1.7536   10.7587 H   0  0  0  0  0  0  0  0  0  0  0  0
   -2.3764    2.0042   10.1341 H   0  0  0  0  0  0  0  0  0  0  0  0
   -1.2525   -2.3679    9.0964 H   0  0  0  0  0  0  0  0  0  0  0  0
   -3.0444   -2.7526   11.5101 H   0  0  0  0  0  0  0  0  0  0  0  0
   -2.3404   -4.0090   10.5264 H   0  0  0  0  0  0  0  0  0  0  0  0
   -1.3121   -2.9767   11.4887 H   0  0  0  0  0  0  0  0  0  0  0  0
   -3.1744   -1.3608    8.0230 H   0  0  0  0  0  0  0  0  0  0  0  0
   -3.5042   -3.0245    8.4507 H   0  0  0  0  0  0  0  0  0  0  0  0
   -4.1979   -1.7356    9.3976 H   0  0  0  0  0  0  0  0  0  0  0  0
    1.2549   -1.7922   10.6300 H   0  0  0  0  0  0  0  0  0  0  0  0
    2.9695   -3.0583    9.3648 H   0  0  0  0  0  0  0  0  0  0  0  0
    1.5776   -1.3262    5.7704 H   0  0  0  0  0  0  0  0  0  0  0  0
  1  2  1  0  0  0  0
  1 38  1  0  0  0  0
  1 54  1  0  0  0  0
  2  3  1  0  0  0  0
  2 48  1  0  0  0  0
  3  4  1  0  0  0  0
  3 55  1  0  0  0  0
  4  5  1  0  0  0  0
  4 37  1  0  0  0  0
  5  6  1  0  0  0  0
  5 12  1  0  0  0  0
  5 39  1  0  0  0  0
  6  7  1  0  0  0  0
  6 11  1  0  0  0  0
  7  8  1  0  0  0  0
  7 56  1  0  0  0  0
  8  9  1  0  0  0  0
  8 47  1  0  0  0  0
  9 10  1  0  0  0  0
  9 57  1  0  0  0  0
 10 11  1  0  0  0  0
 10 46  1  0  0  0  0
 11 58  1  0  0  0  0
 12 13  1  0  0  0  0
 12 36  1  0  0  0  0
 13 14  1  0  0  0  0
 13 33  1  0  0  0  0
 14 15  1  0  0  0  0
 14 32  1  0  0  0  0
 15 16  1  0  0  0  0
 15 29  1  0  0  0  0
 16 17  1  0  0  0  0
 16 23  1  0  0  0  0
 17 18  1  0  0  0  0
 17 22  1  0  0  0  0
 18 19  1  0  0  0  0
 18 59  1  0  0  0  0
 19 20  1  0  0  0  0
 19 52  1  0  0  0  0
 20 21  1  0  0  0  0
 20 60  1  0  0  0  0
 21 22  1  0  0  0  0
 21 53  1  0  0  0  0
 22 61  1  0  0  0  0
 23 24  1  0  0  0  0
 23 28  1  0  0  0  0
 24 25  1  0  0  0  0
 24 62  1  0  0  0  0
 25 26  1  0  0  0  0
 25 50  1  0  0  0  0
 26 27  1  0  0  0  0
 26 63  1  0  0  0  0
 27 28  1  0  0  0  0
 27 51  1  0  0  0  0
 28 64  1  0  0  0  0
 29 30  1  0  0  0  0
 29 65  1  0  0  0  0
 30 31  1  0  0  0  0
 30 66  1  0  0  0  0
 31 32  1  0  0  0  0
 32 40  1  0  0  0  0
 33 34  1  0  0  0  0
 34 35  1  0  0  0  0
 34 43  1  0  0  0  0
 35 36  1  0  0  0  0
 35 67  1  0  0  0  0
 36 68  1  0  0  0  0
 37 38  1  0  0  0  0
 37 69  1  0  0  0  0
 38 49  1  0  0  0  0
 39 16  1  0  0  0  0
 39100  1  0  0  0  0
 40 41  1  0  0  0  0
 41 42  1  0  0  0  0
 41 70  1  0  0  0  0
 41 71  1  0  0  0  0
 42 31  1  0  0  0  0
 43 44  1  0  0  0  0
 44 45  1  0  0  0  0
 44 72  1  0  0  0  0
 44 73  1  0  0  0  0
 45 33  1  0  0  0  0
 46 74  1  0  0  0  0
 46 75  1  0  0  0  0
 46 76  1  0  0  0  0
 47 77  1  0  0  0  0
 47 78  1  0  0  0  0
 47 79  1  0  0  0  0
 48 80  1  0  0  0  0
 48 81  1  0  0  0  0
 48 82  1  0  0  0  0
 49 83  1  0  0  0  0
 49 84  1  0  0  0  0
 49 85  1  0  0  0  0
 50 86  1  0  0  0  0
 50 87  1  0  0  0  0
 50 88  1  0  0  0  0
 51 89  1  0  0  0  0
 51 90  1  0  0  0  0
 51 91  1  0  0  0  0
 52 92  1  0  0  0  0
 52 93  1  0  0  0  0
 52 94  1  0  0  0  0
 53 95  1  0  0  0  0
 53 96  1  0  0  0  0
 53 97  1  0  0  0  0
 98 39  1  0  0  0  0
 99 39  1  0  0  0  0
100101  1  0  0  0  0
100116  1  0  0  0  0
100117  1  0  0  0  0
101102  1  0  0  0  0
101108  1  0  0  0  0
101118  1  0  0  0  0
102103  1  0  0  0  0
102107  1  0  0  0  0
103104  1  0  0  0  0
103119  1  0  0  0  0
104105  1  0  0  0  0
104120  1  0  0  0  0
105106  1  0  0  0  0
105121  1  0  0  0  0
106107  1  0  0  0  0
106122  1  0  0  0  0
107123  1  0  0  0  0
108109  1  0  0  0  0
108110  1  0  0  0  0
108124  1  0  0  0  0
109125  1  0  0  0  0
109126  1  0  0  0  0
109 39  1  0  0  0  0
110111  1  0  0  0  0
110115  1  0  0  0  0
111112  1  0  0  0  0
111127  1  0  0  0  0
112113  1  0  0  0  0
112128  1  0  0  0  0
113114  1  0  0  0  0
113129  1  0  0  0  0
114115  1  0  0  0  0
114130  1  0  0  0  0
115131  1  0  0  0  0
132133  1  0  0  0  0
132151  1  0  0  0  0
132152  1  0  0  0  0
132153  1  0  0  0  0
133134  1  0  0  0  0
133150  2  0  0  0  0
133 98  1  0  0  0  0
134135  1  0  0  0  0
134149  1  0  0  0  0
135136  1  0  0  0  0
135145  1  0  0  0  0
136137  1  0  0  0  0
136144  2  0  0  0  0
137138  1  0  0  0  0
137141  1  0  0  0  0
138139  1  0  0  0  0
138140  1  0  0  0  0
138154  1  0  0  0  0
139155  1  0  0  0  0
139156  1  0  0  0  0
139157  1  0  0  0  0
140158  1  0  0  0  0
140159  1  0  0  0  0
140160  1  0  0  0  0
141142  1  0  0  0  0
141143  1  0  0  0  0
141161  1  0  0  0  0
142162  1  0  0  0  0
142163  1  0  0  0  0
142164  1  0  0  0  0
143165  1  0  0  0  0
143166  1  0  0  0  0
143167  1  0  0  0  0
145146  1  0  0  0  0
145168  1  0  0  0  0
146147  1  0  0  0  0
146169  1  0  0  0  0
147148  1  0  0  0  0
147149  1  0  0  0  0
149170  1  0  0  0  0
150116  1  0  0  0  0
M  END
